02:41:57 INFO: Run date: 2014-08-24 17:41:57
02:41:57 INFO: Download start: 2014-08-01 12:00:00
02:41:57 INFO: Download stop: 2014-08-08 12:00:00
02:41:57 INFO: Bounding box: -87.40, 24.25,-74.70, 36.70
02:42:00 INFO: CSW version: 2.0.2
02:42:00 INFO: Number of datasets available: 10
02:42:00 INFO: CSW: ROMS/TOMS 3.0 - South-Atlantic Bight and Gulf of Mexico
02:42:00 INFO: CSW: COAWST Forecast System : USGS : US East Coast and Gulf of Mexico (Experimental)
02:42:00 INFO: CSW: ROMS ESPRESSO Real-Time Operational IS4DVAR Forecast System Version 2 (NEW) 2013-present FMRC History (Best)
02:42:00 INFO: CSW: Barotropic Tide Model for the Pacific Basin
02:42:00 INFO: CSW: TBOFS - Tampa Bay Operational Forecast System - NOAA CO-OPS - POM
02:42:00 INFO: CSW: NDBC Standard Meteorological Buoy Data
02:42:00 INFO: CSW: HYbrid Coordinate Ocean Model (HYCOM): Global
02:42:00 INFO: CSW: CBOFS - Chesapeake Bay Operational Forecast System - NOAA CO-OPS - POM
02:42:00 INFO: CSW: ESTOFS Storm Surge Model - Atlantic - v1.0.0 - NOAA - NCEP - ADCIRC
02:42:00 INFO: CSW: NECOFS GOM3 (FVCOM) - Northeast US - Latest Forecast
02:42:00 INFO: DAP: http://omgsrv1.meas.ncsu.edu:8080/thredds/dodsC/fmrc/sabgom/SABGOM_Forecast_Model_Run_Collection_best.ncd.html
02:42:00 INFO: DAP: http://geoport.whoi.edu/thredds/dodsC/coawst_4/use/fmrc/coawst_4_use_best.ncd.html
02:42:00 INFO: DAP: http://tds.marine.rutgers.edu/thredds/dodsC/roms/espresso/2013_da/his_Best/ESPRESSO_Real-Time_v2_History_Best_Available_best.ncd.html
02:42:00 INFO: DAP: http://oos.soest.hawaii.edu/thredds/dodsC/hioos/tide_pac.html
02:42:00 INFO: DAP: http://opendap.co-ops.nos.noaa.gov/thredds/dodsC/TBOFS/fmrc/Aggregated_7_day_TBOFS_Fields_Forecast_best.ncd.html
02:42:00 INFO: DAP: http://oos.soest.hawaii.edu/thredds/dodsC/pacioos/hycom/global.html
02:42:00 INFO: DAP: http://opendap.co-ops.nos.noaa.gov/thredds/dodsC/CBOFS/fmrc/Aggregated_7_day_CBOFS_Fields_Forecast_best.ncd.html
02:42:00 INFO: DAP: http://geoport-dev.whoi.edu/thredds/dodsC/estofs/atlantic.html
02:42:00 INFO: DAP: http://www.smast.umassd.edu:8080/thredds/dodsC/FVCOM/NECOFS/Forecasts/NECOFS_GOM3_FORECAST.nc.html
02:42:07 INFO: NOAA.NOS.CO-OPS SOS: 1023 offerings
02:42:07 INFO: Starting new HTTP connection (1): opendap.co-ops.nos.noaa.gov
02:42:13 INFO: sos_request
02:42:26 INFO: Downloading observation to file 2014-08-08/2014-08-08-OBS_DATA.nc.
02:42:31 WARNING: [8654467] USCG Station Hatteras, NC:
'Wrong Datum for this station: The correct Datum values are: MHHW, MHW, MTL, MSL, MLW, MLLW, STND'
02:42:32 WARNING: [8656483] Beaufort, NC:
'Wrong Datum for this station: The correct Datum values are: MHHW, MHW, MTL, MSL, MLW, MLLW, STND'
02:42:33 WARNING: [8658120] Wilmington, NC:
'Wrong Datum for this station: The correct Datum values are: MHHW, MHW, MTL, MSL, MLW, MLLW, STND'
02:43:10 WARNING: [8726520] St Petersburg, FL:
'Wrong Datum for this station: The correct Datum values are: MHHW, MHW, MTL, MSL, MLW, MLLW, STND'
02:43:11 WARNING: [8726607] Old Port Tampa, FL:
'Wrong Datum for this station: The correct Datum values are: MHHW, MHW, MTL, MSL, MLW, MLLW, STND'
02:43:21 WARNING: [8729210] Panama City Beach, FL:
'Wrong Datum for this station: The correct Datum values are: MHHW, MHW, MTL, MSL, MLW, MLLW, STND'
02:43:25 WARNING: /home/filipe/miniconda/envs/ioos/lib/python2.7/site-packages/iris/fileformats/cf.py:1038: UserWarning: Ignoring formula terms variable u'h' referenced by data variable u'v' via variable u's_rho': Dimensions (u'eta_rho', u'xi_rho') do not span (u'time', u's_rho', u'eta_v', u'xi_v')
  warnings.warn(msg)

02:43:25 WARNING: /home/filipe/miniconda/envs/ioos/lib/python2.7/site-packages/iris/fileformats/cf.py:1038: UserWarning: Ignoring formula terms variable u'zeta' referenced by data variable u'v' via variable u's_rho': Dimensions (u'time', u'eta_rho', u'xi_rho') do not span (u'time', u's_rho', u'eta_v', u'xi_v')
  warnings.warn(msg)

02:43:25 WARNING: /home/filipe/miniconda/envs/ioos/lib/python2.7/site-packages/iris/fileformats/cf.py:1038: UserWarning: Ignoring formula terms variable u'h' referenced by data variable u'u' via variable u's_rho': Dimensions (u'eta_rho', u'xi_rho') do not span (u'time', u's_rho', u'eta_u', u'xi_u')
  warnings.warn(msg)

02:43:25 WARNING: /home/filipe/miniconda/envs/ioos/lib/python2.7/site-packages/iris/fileformats/cf.py:1038: UserWarning: Ignoring formula terms variable u'zeta' referenced by data variable u'u' via variable u's_rho': Dimensions (u'time', u'eta_rho', u'xi_rho') do not span (u'time', u's_rho', u'eta_u', u'xi_u')
  warnings.warn(msg)

02:43:25 WARNING: /home/filipe/miniconda/envs/ioos/lib/python2.7/site-packages/iris/fileformats/_pyke_rules/compiled_krb/fc_rules_cf_fc.py:1195: UserWarning: Ignoring netCDF variable 'chlorophyll' invalid units 'milligrams_chlorophyll meter-3'
  warnings.warn(msg.format(msg_name, msg_units))

02:43:25 WARNING: /home/filipe/miniconda/envs/ioos/lib/python2.7/site-packages/iris/fileformats/_pyke_rules/compiled_krb/fc_rules_cf_fc.py:1290: UserWarning: Gracefully filling 'time' dimension coordinate masked points
  warnings.warn(msg.format(str(cf_coord_var.cf_name)))

02:43:25 WARNING: /home/filipe/miniconda/envs/ioos/lib/python2.7/site-packages/iris/fileformats/_pyke_rules/compiled_krb/fc_rules_cf_fc.py:1195: UserWarning: Ignoring netCDF variable 'phytoplankton' invalid units 'millimole_nitrogen meter-3'
  warnings.warn(msg.format(msg_name, msg_units))

02:43:26 WARNING: /home/filipe/miniconda/envs/ioos/lib/python2.7/site-packages/iris/fileformats/_pyke_rules/compiled_krb/fc_rules_cf_fc.py:1195: UserWarning: Ignoring netCDF variable 'NO3' invalid units 'millimole_N03 meter-3'
  warnings.warn(msg.format(msg_name, msg_units))

02:43:26 WARNING: /home/filipe/miniconda/envs/ioos/lib/python2.7/site-packages/iris/fileformats/_pyke_rules/compiled_krb/fc_rules_cf_fc.py:1195: UserWarning: Ignoring netCDF variable 'zooplankton' invalid units 'millimole_nitrogen meter-3'
  warnings.warn(msg.format(msg_name, msg_units))

02:43:26 WARNING: /home/filipe/miniconda/envs/ioos/lib/python2.7/site-packages/iris/fileformats/_pyke_rules/compiled_krb/fc_rules_cf_fc.py:1195: UserWarning: Ignoring netCDF variable 'NH4' invalid units 'millimole_NH4 meter-3'
  warnings.warn(msg.format(msg_name, msg_units))

02:43:37 INFO: 
[SABGOM] ROMS/TOMS 3.0 - South-Atlantic Bight and Gulf of Mexico:
http://omgsrv1.meas.ncsu.edu:8080/thredds/dodsC/fmrc/sabgom/SABGOM_Forecast_Model_Run_Collection_best.ncd

02:43:37 INFO: Downloading model series to file 2014-08-08/2014-08-08-SABGOM.nc.
02:43:42 INFO: [Found Water] Duck, NC
02:43:44 INFO: [Found Land] Oregon Inlet Marina, NC
02:43:46 INFO: [Found Water] Wrightsville Beach, NC
02:43:48 INFO: [Found Water] Springmaid Pier, SC
02:43:50 INFO: [Found Land] Oyster Landing (N Inlet Estuary), SC
02:43:52 INFO: [Found Land] Charleston, SC
02:43:54 INFO: [Found Land] Fort Pulaski, GA
02:43:56 INFO: [Found Land] Fernandina Beach, FL
02:43:59 INFO: [Found Land] Mayport (Bar Pilots Dock), FL
02:44:01 INFO: [Found Land] Dames Point, FL
02:44:02 INFO: [Found Land] Southbank Riverwalk, St Johns River, FL
02:44:05 INFO: [Found Land] I-295 Bridge, St Johns River, FL
02:44:06 INFO: [Found Land] Red Bay Point, St Johns River, FL
02:44:09 INFO: [Found Land] Racy Point, St Johns River, FL
02:44:13 INFO: [Found Land] Trident Pier, FL
02:44:17 INFO: [Found Land] Lake Worth Pier, FL
02:44:19 INFO: [Found Water] Virginia Key, FL
02:44:23 INFO: [Found Land] Vaca Key, FL
02:44:25 INFO: [Found Water] Key West, FL
02:44:27 INFO: [Found Land] Naples, FL
02:44:29 INFO: [Found Land] Fort Myers, FL
02:44:33 INFO: [Found Land] Port Manatee, FL
02:44:37 INFO: [Found Land] Mckay Bay Entrance, FL
02:44:41 INFO: [Found Land] Clearwater Beach, FL
02:44:42 INFO: [Found Water] Cedar Key, FL
02:44:45 INFO: [Found Land] Apalachicola, FL
02:44:46 INFO: [Found Land] Panama City, FL
02:44:48 INFO: [Found Land] Pensacola, FL
02:45:12 INFO: 
[COAWST_4] COAWST Forecast System : USGS : US East Coast and Gulf of Mexico (Experimental):
http://geoport.whoi.edu/thredds/dodsC/coawst_4/use/fmrc/coawst_4_use_best.ncd

02:45:12 INFO: Downloading model series to file 2014-08-08/2014-08-08-COAWST_4.nc.
02:45:17 INFO: [Found Land] Duck, NC
02:45:25 INFO: [Found Water] Oregon Inlet Marina, NC
02:45:28 INFO: [Found Water] Wrightsville Beach, NC
02:45:37 INFO: [Found Water] Springmaid Pier, SC
02:45:42 INFO: [Found Land] Oyster Landing (N Inlet Estuary), SC
02:45:46 INFO: [Found Land] Charleston, SC
02:45:51 INFO: [Found Land] Fort Pulaski, GA
02:45:56 INFO: [Found Land] Fernandina Beach, FL
02:46:00 INFO: [Found Land] Mayport (Bar Pilots Dock), FL
02:46:04 INFO: [Found Land] Dames Point, FL
02:46:09 INFO: [Found Land] Southbank Riverwalk, St Johns River, FL
02:46:14 INFO: [Found Land] I-295 Bridge, St Johns River, FL
02:46:18 INFO: [Found Land] Red Bay Point, St Johns River, FL
02:46:23 INFO: [Found Land] Racy Point, St Johns River, FL
02:46:27 INFO: [Found Land] Trident Pier, FL
02:46:37 INFO: [Found Water] Lake Worth Pier, FL
02:46:41 INFO: [Found Land] Virginia Key, FL
02:46:46 INFO: [Found Land] Vaca Key, FL
02:46:56 INFO: [Found Water] Key West, FL
02:47:00 INFO: [Found Land] Naples, FL
02:47:05 INFO: [Found Land] Fort Myers, FL
02:47:09 INFO: [Found Land] Port Manatee, FL
02:47:14 INFO: [Found Land] Mckay Bay Entrance, FL
02:47:18 INFO: [Found Land] Clearwater Beach, FL
02:47:27 INFO: [Found Water] Cedar Key, FL
02:47:31 INFO: [Found Water] Apalachicola, FL
02:47:36 INFO: [Found Water] Panama City, FL
02:47:40 INFO: [Found Water] Pensacola, FL
02:47:51 INFO: 
[ESPRESSO] ROMS ESPRESSO Real-Time Operational IS4DVAR Forecast System Version 2 (NEW) 2013-present FMRC History (Best):
http://tds.marine.rutgers.edu/thredds/dodsC/roms/espresso/2013_da/his_Best/ESPRESSO_Real-Time_v2_History_Best_Available_best.ncd

02:47:51 INFO: Downloading model series to file 2014-08-08/2014-08-08-ESPRESSO.nc.
02:47:53 INFO: [Found Land] Duck, NC
02:47:55 INFO: [Found Water] Oregon Inlet Marina, NC
02:47:55 WARNING: No data found for (-77.7867,34.2133) using max_dist=0.04.
02:47:55 WARNING: No data found for (-78.9183,33.655) using max_dist=0.04.
02:47:55 WARNING: No data found for (-79.1867,33.3517) using max_dist=0.04.
02:47:55 WARNING: No data found for (-79.925,32.7817) using max_dist=0.04.
02:47:55 WARNING: No data found for (-80.9017,32.0333) using max_dist=0.04.
02:47:55 WARNING: No data found for (-81.465,30.6717) using max_dist=0.04.
02:47:55 WARNING: No data found for (-81.43,30.3967) using max_dist=0.04.
02:47:55 WARNING: No data found for (-81.5583,30.3867) using max_dist=0.04.
02:47:55 WARNING: No data found for (-81.6583,30.32) using max_dist=0.04.
02:47:55 WARNING: No data found for (-81.6917,30.1917) using max_dist=0.04.
02:47:55 WARNING: No data found for (-81.6283,29.9783) using max_dist=0.04.
02:47:55 WARNING: No data found for (-81.5483,29.8017) using max_dist=0.04.
02:47:55 WARNING: No data found for (-80.5931,28.4158) using max_dist=0.04.
02:47:55 WARNING: No data found for (-80.0333,26.6117) using max_dist=0.04.
02:47:55 WARNING: No data found for (-80.1618,25.7314) using max_dist=0.04.
02:47:55 WARNING: No data found for (-81.105,24.7117) using max_dist=0.04.
02:47:55 WARNING: No data found for (-81.8079,24.5557) using max_dist=0.04.
02:47:55 WARNING: No data found for (-81.8075,26.1317) using max_dist=0.04.
02:47:55 WARNING: No data found for (-81.8712,26.6477) using max_dist=0.04.
02:47:55 WARNING: No data found for (-82.5621,27.6387) using max_dist=0.04.
02:47:55 WARNING: No data found for (-82.425,27.9133) using max_dist=0.04.
02:47:55 WARNING: No data found for (-82.8317,27.9783) using max_dist=0.04.
02:47:55 WARNING: No data found for (-83.0317,29.135) using max_dist=0.04.
02:47:55 WARNING: No data found for (-84.9817,29.7267) using max_dist=0.04.
02:47:55 WARNING: No data found for (-85.6669,30.1523) using max_dist=0.04.
02:47:55 WARNING: No data found for (-87.2112,30.4044) using max_dist=0.04.
02:47:59 INFO: 
[BTMPB] Barotropic Tide Model for the Pacific Basin:
http://oos.soest.hawaii.edu/thredds/dodsC/hioos/tide_pac

02:47:59 INFO: Downloading model series to file 2014-08-08/2014-08-08-BTMPB.nc.
02:47:59 WARNING: No data found for (-75.7467,36.1833) using max_dist=0.04.
02:47:59 WARNING: No data found for (-75.5483,35.795) using max_dist=0.04.
02:47:59 WARNING: No data found for (-77.7867,34.2133) using max_dist=0.04.
02:47:59 WARNING: No data found for (-78.9183,33.655) using max_dist=0.04.
02:47:59 WARNING: No data found for (-79.1867,33.3517) using max_dist=0.04.
02:47:59 WARNING: No data found for (-79.925,32.7817) using max_dist=0.04.
02:47:59 WARNING: No data found for (-80.9017,32.0333) using max_dist=0.04.
02:47:59 WARNING: No data found for (-81.465,30.6717) using max_dist=0.04.
02:47:59 WARNING: No data found for (-81.43,30.3967) using max_dist=0.04.
02:47:59 WARNING: No data found for (-81.5583,30.3867) using max_dist=0.04.
02:47:59 WARNING: No data found for (-81.6583,30.32) using max_dist=0.04.
02:47:59 WARNING: No data found for (-81.6917,30.1917) using max_dist=0.04.
02:47:59 WARNING: No data found for (-81.6283,29.9783) using max_dist=0.04.
02:47:59 WARNING: No data found for (-81.5483,29.8017) using max_dist=0.04.
02:47:59 WARNING: No data found for (-80.5931,28.4158) using max_dist=0.04.
02:47:59 WARNING: No data found for (-80.0333,26.6117) using max_dist=0.04.
02:47:59 WARNING: No data found for (-80.1618,25.7314) using max_dist=0.04.
02:47:59 WARNING: No data found for (-81.105,24.7117) using max_dist=0.04.
02:47:59 WARNING: No data found for (-81.8079,24.5557) using max_dist=0.04.
02:47:59 WARNING: No data found for (-81.8075,26.1317) using max_dist=0.04.
02:47:59 WARNING: No data found for (-81.8712,26.6477) using max_dist=0.04.
02:47:59 WARNING: No data found for (-82.5621,27.6387) using max_dist=0.04.
02:47:59 WARNING: No data found for (-82.425,27.9133) using max_dist=0.04.
02:47:59 WARNING: No data found for (-82.8317,27.9783) using max_dist=0.04.
02:47:59 WARNING: No data found for (-83.0317,29.135) using max_dist=0.04.
02:47:59 WARNING: No data found for (-84.9817,29.7267) using max_dist=0.04.
02:47:59 WARNING: No data found for (-85.6669,30.1523) using max_dist=0.04.
02:47:59 WARNING: No data found for (-87.2112,30.4044) using max_dist=0.04.
02:48:02 WARNING: /home/filipe/miniconda/envs/ioos/lib/python2.7/site-packages/iris/fileformats/cf.py:1038: UserWarning: Ignoring formula terms variable u'h' referenced by data variable u'Cs_r' via variable u's_rho': Dimensions (u'eta_rho', u'xi_rho') do not span (u's_rho',)
  warnings.warn(msg)

02:48:02 WARNING: /home/filipe/miniconda/envs/ioos/lib/python2.7/site-packages/iris/fileformats/cf.py:1038: UserWarning: Ignoring formula terms variable u'zeta' referenced by data variable u'Cs_r' via variable u's_rho': Dimensions (u'time', u'eta_rho', u'xi_rho') do not span (u's_rho',)
  warnings.warn(msg)

02:48:02 WARNING: /home/filipe/miniconda/envs/ioos/lib/python2.7/site-packages/iris/fileformats/cf.py:1038: UserWarning: Ignoring formula terms variable u'h' referenced by data variable u'Cs_w' via variable u's_w': Dimensions (u'eta_rho', u'xi_rho') do not span (u's_w',)
  warnings.warn(msg)

02:48:02 WARNING: /home/filipe/miniconda/envs/ioos/lib/python2.7/site-packages/iris/fileformats/cf.py:1038: UserWarning: Ignoring formula terms variable u'zeta' referenced by data variable u'Cs_w' via variable u's_w': Dimensions (u'time', u'eta_rho', u'xi_rho') do not span (u's_w',)
  warnings.warn(msg)

02:48:12 WARNING: Cannot get cube for: http://opendap.co-ops.nos.noaa.gov/thredds/dodsC/TBOFS/fmrc/Aggregated_7_day_TBOFS_Fields_Forecast_best.ncd

02:48:26 INFO: 
[HYCOM] HYbrid Coordinate Ocean Model (HYCOM): Global:
http://oos.soest.hawaii.edu/thredds/dodsC/pacioos/hycom/global

02:48:26 INFO: Downloading model series to file 2014-08-08/2014-08-08-HYCOM.nc.
02:48:29 INFO: [Found Land] Duck, NC
02:48:31 INFO: [Found Water] Oregon Inlet Marina, NC
02:48:33 INFO: [Found Water] Wrightsville Beach, NC
02:48:33 WARNING: No data found for (-78.9183,33.655) using max_dist=0.04.
02:48:39 INFO: [Found Land] Oyster Landing (N Inlet Estuary), SC
02:48:41 INFO: [Found Land] Charleston, SC
02:48:44 INFO: [Found Land] Fort Pulaski, GA
02:48:46 INFO: [Found Land] Fernandina Beach, FL
02:48:48 INFO: [Found Land] Mayport (Bar Pilots Dock), FL
02:48:50 INFO: [Found Land] Dames Point, FL
02:48:52 INFO: [Found Land] Southbank Riverwalk, St Johns River, FL
02:48:54 INFO: [Found Land] I-295 Bridge, St Johns River, FL
02:48:56 INFO: [Found Land] Red Bay Point, St Johns River, FL
02:48:56 WARNING: No data found for (-81.5483,29.8017) using max_dist=0.04.
02:48:58 INFO: [Found Land] Trident Pier, FL
02:49:00 INFO: [Found Water] Lake Worth Pier, FL
02:49:03 INFO: [Found Land] Virginia Key, FL
02:49:05 INFO: [Found Land] Vaca Key, FL
02:49:07 INFO: [Found Land] Key West, FL
02:49:07 WARNING: No data found for (-81.8075,26.1317) using max_dist=0.04.
02:49:09 INFO: [Found Land] Fort Myers, FL
02:49:11 INFO: [Found Land] Port Manatee, FL
02:49:13 INFO: [Found Land] Mckay Bay Entrance, FL
02:49:13 WARNING: No data found for (-82.8317,27.9783) using max_dist=0.04.
02:49:15 INFO: [Found Land] Cedar Key, FL
02:49:17 INFO: [Found Land] Apalachicola, FL
02:49:19 INFO: [Found Land] Panama City, FL
02:49:21 INFO: [Found Land] Pensacola, FL
02:49:38 WARNING: Cannot get cube for: http://opendap.co-ops.nos.noaa.gov/thredds/dodsC/CBOFS/fmrc/Aggregated_7_day_CBOFS_Fields_Forecast_best.ncd

02:49:39 WARNING: /home/filipe/miniconda/envs/ioos/lib/python2.7/site-packages/iris/fileformats/_pyke_rules/compiled_krb/fc_rules_cf_fc.py:1195: UserWarning: Ignoring netCDF variable 'nbdv' invalid units 'nondimensional'
  warnings.warn(msg.format(msg_name, msg_units))

02:49:39 WARNING: /home/filipe/miniconda/envs/ioos/lib/python2.7/site-packages/iris/fileformats/_pyke_rules/compiled_krb/fc_rules_cf_fc.py:1195: UserWarning: Ignoring netCDF variable 'neta' invalid units 'nondimensional'
  warnings.warn(msg.format(msg_name, msg_units))

02:49:40 WARNING: /home/filipe/miniconda/envs/ioos/lib/python2.7/site-packages/iris/fileformats/_pyke_rules/compiled_krb/fc_rules_cf_fc.py:1195: UserWarning: Ignoring netCDF variable 'ibtypee' invalid units 'nondimensional'
  warnings.warn(msg.format(msg_name, msg_units))

02:49:40 WARNING: /home/filipe/miniconda/envs/ioos/lib/python2.7/site-packages/iris/fileformats/_pyke_rules/compiled_krb/fc_rules_cf_fc.py:1195: UserWarning: Ignoring netCDF variable 'nvell' invalid units 'nondimensional'
  warnings.warn(msg.format(msg_name, msg_units))

02:49:40 WARNING: /home/filipe/miniconda/envs/ioos/lib/python2.7/site-packages/iris/fileformats/_pyke_rules/compiled_krb/fc_rules_cf_fc.py:1195: UserWarning: Ignoring netCDF variable 'ibtype' invalid units 'nondimensional'
  warnings.warn(msg.format(msg_name, msg_units))

02:49:40 WARNING: /home/filipe/miniconda/envs/ioos/lib/python2.7/site-packages/iris/fileformats/_pyke_rules/compiled_krb/fc_rules_cf_fc.py:1195: UserWarning: Ignoring netCDF variable 'nbvv' invalid units 'nondimensional'
  warnings.warn(msg.format(msg_name, msg_units))

02:49:40 WARNING: /home/filipe/miniconda/envs/ioos/lib/python2.7/site-packages/iris/fileformats/_pyke_rules/compiled_krb/fc_rules_cf_fc.py:1195: UserWarning: Ignoring netCDF variable 'nvel' invalid units 'nondimensional'
  warnings.warn(msg.format(msg_name, msg_units))

02:49:40 WARNING: /home/filipe/miniconda/envs/ioos/lib/python2.7/site-packages/iris/fileformats/_pyke_rules/compiled_krb/fc_rules_cf_fc.py:1195: UserWarning: Ignoring netCDF variable 'nvdll' invalid units 'nondimensional'
  warnings.warn(msg.format(msg_name, msg_units))

02:49:48 INFO: 
[ESTOFS] ESTOFS Storm Surge Model - Atlantic - v1.0.0 - NOAA - NCEP - ADCIRC:
http://geoport-dev.whoi.edu/thredds/dodsC/estofs/atlantic

02:49:48 INFO: Downloading model series to file 2014-08-08/2014-08-08-ESTOFS.nc.
02:49:53 INFO: [Found Water] Duck, NC
02:49:55 INFO: [Found Water] Oregon Inlet Marina, NC
02:50:02 INFO: [Found Water] Wrightsville Beach, NC
02:50:12 INFO: [Found Water] Springmaid Pier, SC
02:50:14 INFO: [Found Water] Oyster Landing (N Inlet Estuary), SC
02:50:14 WARNING: No data found for (-79.925,32.7817) using max_dist=0.04.
02:50:18 INFO: [Found Water] Fort Pulaski, GA
02:50:19 INFO: [Found Water] Fernandina Beach, FL
02:50:21 INFO: [Found Water] Mayport (Bar Pilots Dock), FL
02:50:21 WARNING: No data found for (-81.5583,30.3867) using max_dist=0.04.
02:50:21 WARNING: No data found for (-81.6583,30.32) using max_dist=0.04.
02:50:21 WARNING: No data found for (-81.6917,30.1917) using max_dist=0.04.
02:50:21 WARNING: No data found for (-81.6283,29.9783) using max_dist=0.04.
02:50:21 WARNING: No data found for (-81.5483,29.8017) using max_dist=0.04.
02:50:25 INFO: [Found Water] Trident Pier, FL
02:50:30 INFO: [Found Water] Lake Worth Pier, FL
02:50:37 INFO: [Found Water] Virginia Key, FL
02:50:47 INFO: [Found Water] Vaca Key, FL
02:50:54 INFO: [Found Water] Key West, FL
02:51:01 INFO: [Found Water] Naples, FL
02:51:01 WARNING: No data found for (-81.8712,26.6477) using max_dist=0.04.
02:51:12 INFO: [Found Water] Port Manatee, FL
02:51:17 INFO: [Found Water] Mckay Bay Entrance, FL
02:51:26 INFO: [Found Water] Clearwater Beach, FL
02:51:37 INFO: [Found Water] Cedar Key, FL
02:51:45 INFO: [Found Water] Apalachicola, FL
02:51:45 WARNING: No data found for (-85.6669,30.1523) using max_dist=0.04.
02:51:45 WARNING: No data found for (-87.2112,30.4044) using max_dist=0.04.
02:51:52 WARNING: -c:17: SettingWithCopyWarning: A value is trying to be set on a copy of a slice from a DataFrame

02:52:16 INFO: 618.925229073
02:52:16 INFO: EOF
