02:46:51 INFO: *********************** Run information ************************
02:46:51 INFO: Run date: 2015-02-11 17:46:51
02:46:51 INFO: Download start: 2014-06-30 12:00:00
02:46:51 INFO: Download stop: 2014-07-07 12:00:00
02:46:51 INFO: Bounding box: -87.40, 24.25,-74.70, 36.70
02:46:51 INFO: *********************** Software version ***********************
02:46:51 INFO: Iris version: 1.7.2-DEV
02:46:51 INFO: owslib version: 0.8-dev
02:46:51 INFO: pyoos version: 0.6.2
02:46:55 INFO: ********************* Catalog information **********************
02:46:55 INFO: URL: http://www.ngdc.noaa.gov/geoportal/csw
02:46:55 INFO: CSW version: 2.0.2
02:46:55 INFO: Number of datasets available: 10
02:46:55 INFO: ***************************** CSW ******************************
02:46:55 INFO: USF FVCOM - Nowcast Aggregation
02:46:55 INFO: ROMS/TOMS 3.0 - New Floria Shelf Application
02:46:55 INFO: ROMS/TOMS 3.0 - South-Atlantic Bight and Gulf of Mexico
02:46:55 INFO: COAWST Forecast System : USGS : US East Coast and Gulf of Mexico (Experimental)
02:46:55 INFO: ROMS ESPRESSO Real-Time Operational IS4DVAR Forecast System Version 2 (NEW) 2013-present FMRC History (Best)
02:46:55 INFO: HYbrid Coordinate Ocean Model (HYCOM): Global
02:46:55 INFO: National Data Buoy Center SOS
02:46:55 INFO: Aquarius Level 3 Sea Surface Salinity Standard Mapped Image Daily Data V3.0
02:46:55 INFO: Aquarius Level 3 Sea Surface Salinity Standard Mapped Image Monthly Data V3.0
02:46:55 INFO: Aquarius Level 3 Sea Surface Salinity Standard Mapped Image Weekly Data V3.0
02:46:55 INFO: ***************************** DAP ******************************
02:46:55 INFO: http://crow.marine.usf.edu:8080/thredds/dodsC/FVCOM-Nowcast-Agg.nc.html
02:46:55 INFO: http://crow.marine.usf.edu:8080/thredds/dodsC/WFS_ROMS_NF_model/USF_Ocean_Circulation_Group_West_Florida_Shelf_Daily_ROMS_Nowcast_Forecast_Model_Data_best.ncd.html
02:46:55 INFO: http://geoport.whoi.edu/thredds/dodsC/coawst_4/use/fmrc/coawst_4_use_best.ncd.html
02:46:55 INFO: http://omgsrv1.meas.ncsu.edu:8080/thredds/dodsC/fmrc/sabgom/SABGOM_Forecast_Model_Run_Collection_best.ncd.html
02:46:55 INFO: http://oos.soest.hawaii.edu/thredds/dodsC/pacioos/hycom/global.html
02:46:55 INFO: http://tds.marine.rutgers.edu/thredds/dodsC/roms/espresso/2013_da/his_Best/ESPRESSO_Real-Time_v2_History_Best_Available_best.ncd.html
02:46:55 INFO: http://thredds.axiomalaska.com/thredds/dodsC/Aquarius_V3_SSS_Daily.nc.html
02:46:55 INFO: http://thredds.axiomalaska.com/thredds/dodsC/Aquarius_V3_SSS_Monthly.nc.html
02:46:55 INFO: http://thredds.axiomalaska.com/thredds/dodsC/Aquarius_V3_SSS_Weekly.nc.html
02:46:55 INFO: ***************************** SOS ******************************
02:46:55 INFO: http://sdf.ndbc.noaa.gov/sos/server.php?service=SOS&request=GetCapabilities&acceptVersions=1.0.0
02:46:55 WARNING: USEAST not in the NGDC csw
02:46:55 WARNING: USF_SWAN not in the NGDC csw
02:46:59 WARNING: /home/filipe/miniconda/envs/SECOORA/lib/python2.7/site-packages/iris/fileformats/_pyke_rules/compiled_krb/fc_rules_cf_fc.py:1359: UserWarning: Failed to create 'time' dimension coordinate: The points array must be strictly monotonic.
Gracefully creating 'time' auxiliary coordinate instead.
  error=e_msg))

02:46:59 WARNING: Cannot get cube for: http://129.252.139.124/thredds/dodsC/fit.sispnj.met.nc
Cube does not contain ['sea_water_salinity', 'sea_surface_salinity', 'sea_water_absolute_salinity', 'sea_water_practical_salinity']
02:47:03 WARNING: Cannot get cube for: http://129.252.139.124/thredds/dodsC/usf.nfb.ngwlms.nc
Cube does not contain ['sea_water_salinity', 'sea_surface_salinity', 'sea_water_absolute_salinity', 'sea_water_practical_salinity']
02:47:07 WARNING: Cannot get cube for: http://129.252.139.124/thredds/dodsC/usf.tas.ngwlms.nc
Cube does not contain ['sea_water_salinity', 'sea_surface_salinity', 'sea_water_absolute_salinity', 'sea_water_practical_salinity']
02:47:10 WARNING: Cannot get cube for: http://129.252.139.124/thredds/dodsC/usf.apk.ngwlms.nc
Cube does not contain ['sea_water_salinity', 'sea_surface_salinity', 'sea_water_absolute_salinity', 'sea_water_practical_salinity']
02:47:13 WARNING: Cannot get cube for: http://129.252.139.124/thredds/dodsC/usf.c21.weatherpak.nc
Cube does not contain ['sea_water_salinity', 'sea_surface_salinity', 'sea_water_absolute_salinity', 'sea_water_practical_salinity']
02:47:20 WARNING: Cannot get cube for: http://129.252.139.124/thredds/dodsC/usf.bcp.ngwlms.nc
Cube does not contain ['sea_water_salinity', 'sea_surface_salinity', 'sea_water_absolute_salinity', 'sea_water_practical_salinity']
02:47:23 WARNING: Cannot get cube for: http://129.252.139.124/thredds/dodsC/usf.fhp.ngwlms.nc
Cube does not contain ['sea_water_salinity', 'sea_surface_salinity', 'sea_water_absolute_salinity', 'sea_water_practical_salinity']
02:47:26 WARNING: Cannot get cube for: http://129.252.139.124/thredds/dodsC/usf.c10.mcat.nc
istart must be different from istop! Got istart 48233 and  istop 48233
02:47:28 WARNING: Cannot get cube for: http://129.252.139.124/thredds/dodsC/usf.c12.mcat.nc
istart must be different from istop! Got istart 18711 and  istop 18711
02:47:31 WARNING: Cannot get cube for: http://129.252.139.124/thredds/dodsC/usf.c13.mcat.nc
istart must be different from istop! Got istart 18099 and  istop 18099
02:47:34 WARNING: Cannot get cube for: http://129.252.139.124/thredds/dodsC/usf.c10.mcat_2011.nc
istart must be different from istop! Got istart 26303 and  istop 26303
02:47:37 WARNING: Cannot get cube for: http://129.252.139.124/thredds/dodsC/usf.c12.mcat_2011.nc
istart must be different from istop! Got istart 26303 and  istop 26303
02:47:40 WARNING: Cannot get cube for: http://129.252.139.124/thredds/dodsC/usf.c13.mcat_2011.nc
istart must be different from istop! Got istart 26303 and  istop 26303
02:47:45 WARNING: Cannot get cube for: http://129.252.139.124/thredds/dodsC/carocoops.frp2.buoy.nc
Cube does not contain ['sea_water_salinity', 'sea_surface_salinity', 'sea_water_absolute_salinity', 'sea_water_practical_salinity']
02:47:49 WARNING: Cannot get cube for: http://129.252.139.124/thredds/dodsC/carocoops.cap2.buoy.nc
Cube does not contain ['sea_water_salinity', 'sea_surface_salinity', 'sea_water_absolute_salinity', 'sea_water_practical_salinity']
02:48:03 WARNING: Cannot get cube for: http://129.252.139.124/thredds/dodsC/cormp.ilm1.buoy.nc
istart must be different from istop! Got istart 1443 and  istop 1443
02:48:08 WARNING: Cannot get cube for: http://129.252.139.124/thredds/dodsC/cormp.lej3.buoy.nc
istart must be different from istop! Got istart 91490 and  istop 91490
02:48:10 WARNING: /home/filipe/miniconda/envs/SECOORA/lib/python2.7/site-packages/iris/fileformats/_pyke_rules/compiled_krb/fc_rules_cf_fc.py:1196: UserWarning: Ignoring netCDF variable 'dissolved_oxygen_saturation' invalid units 'mg_L-1'
  warnings.warn(msg.format(msg_name, msg_units))

02:48:11 WARNING: /home/filipe/miniconda/envs/SECOORA/lib/python2.7/site-packages/iris/fileformats/_pyke_rules/compiled_krb/fc_rules_cf_fc.py:1196: UserWarning: Ignoring netCDF variable 'dissolved_oxygen' invalid units 'mg_L-1'
  warnings.warn(msg.format(msg_name, msg_units))

02:48:11 WARNING: /home/filipe/miniconda/envs/SECOORA/lib/python2.7/site-packages/iris/fileformats/_pyke_rules/compiled_krb/fc_rules_cf_fc.py:1196: UserWarning: Ignoring netCDF variable 'cdom' invalid units 'QSDE'
  warnings.warn(msg.format(msg_name, msg_units))

02:48:11 WARNING: /home/filipe/miniconda/envs/SECOORA/lib/python2.7/site-packages/iris/fileformats/_pyke_rules/compiled_krb/fc_rules_cf_fc.py:1196: UserWarning: Ignoring netCDF variable 'turbidity' invalid units 'ntu'
  warnings.warn(msg.format(msg_name, msg_units))

02:48:11 WARNING: /home/filipe/miniconda/envs/SECOORA/lib/python2.7/site-packages/iris/fileformats/_pyke_rules/compiled_krb/fc_rules_cf_fc.py:1196: UserWarning: Ignoring netCDF variable 'conductivity' invalid units 'mS_cm-1'
  warnings.warn(msg.format(msg_name, msg_units))

02:48:13 WARNING: /home/filipe/miniconda/envs/SECOORA/lib/python2.7/site-packages/iris/fileformats/_pyke_rules/compiled_krb/fc_rules_cf_fc.py:1196: UserWarning: Ignoring netCDF variable 'nitrate' invalid units 'uM'
  warnings.warn(msg.format(msg_name, msg_units))

02:48:26 WARNING: /home/filipe/miniconda/envs/SECOORA/lib/python2.7/site-packages/iris/fileformats/_pyke_rules/compiled_krb/fc_rules_cf_fc.py:1196: UserWarning: Ignoring netCDF variable 'conductivity_2' invalid units 'mS_cm-1'
  warnings.warn(msg.format(msg_name, msg_units))

02:48:31 WARNING: Cannot get cube for: http://129.252.139.124/thredds/dodsC/fldep.poncedeleonsouth..nc
Cube does not contain ['sea_water_salinity', 'sea_surface_salinity', 'sea_water_absolute_salinity', 'sea_water_practical_salinity']
02:48:38 WARNING: Cannot get cube for: http://129.252.139.124/thredds/dodsC/fldep.redbaypoint..nc
Cube does not contain ['sea_water_salinity', 'sea_surface_salinity', 'sea_water_absolute_salinity', 'sea_water_practical_salinity']
02:48:49 WARNING: Cannot get cube for: http://129.252.139.124/thredds/dodsC/fldep.naplesbay..nc
Cube does not contain ['sea_water_salinity', 'sea_surface_salinity', 'sea_water_absolute_salinity', 'sea_water_practical_salinity']
02:48:54 WARNING: Cannot get cube for: http://129.252.139.124/thredds/dodsC/fldep.gordonriverinlet..nc
Cube does not contain ['sea_water_salinity', 'sea_surface_salinity', 'sea_water_absolute_salinity', 'sea_water_practical_salinity']
02:48:59 WARNING: Cannot get cube for: http://129.252.139.124/thredds/dodsC/fldep.melbourne..nc
Cube does not contain ['sea_water_salinity', 'sea_surface_salinity', 'sea_water_absolute_salinity', 'sea_water_practical_salinity']
02:49:04 WARNING: Cannot get cube for: http://129.252.139.124/thredds/dodsC/fldep.binneydock..nc
Cube does not contain ['sea_water_salinity', 'sea_surface_salinity', 'sea_water_absolute_salinity', 'sea_water_practical_salinity']
02:49:09 WARNING: Cannot get cube for: http://129.252.139.124/thredds/dodsC/fldep.verobeach..nc
Cube does not contain ['sea_water_salinity', 'sea_surface_salinity', 'sea_water_absolute_salinity', 'sea_water_practical_salinity']
02:49:14 WARNING: Cannot get cube for: http://129.252.139.124/thredds/dodsC/lbhmc.2ndave.pier.nc
Cube does not contain ['sea_water_salinity', 'sea_surface_salinity', 'sea_water_absolute_salinity', 'sea_water_practical_salinity']
02:49:18 WARNING: /home/filipe/miniconda/envs/SECOORA/lib/python2.7/site-packages/iris/fileformats/_pyke_rules/compiled_krb/fc_rules_cf_fc.py:1196: UserWarning: Ignoring netCDF variable 'turbidity_2' invalid units 'ntu'
  warnings.warn(msg.format(msg_name, msg_units))

02:49:18 WARNING: /home/filipe/miniconda/envs/SECOORA/lib/python2.7/site-packages/iris/fileformats/_pyke_rules/compiled_krb/fc_rules_cf_fc.py:1196: UserWarning: Ignoring netCDF variable 'dissolved_oxygen_2' invalid units 'mg_L-1'
  warnings.warn(msg.format(msg_name, msg_units))

02:49:24 WARNING: Cannot get cube for: http://129.252.139.124/thredds/dodsC/enp.wiwf1.met.nc
Cube does not contain ['sea_water_salinity', 'sea_surface_salinity', 'sea_water_absolute_salinity', 'sea_water_practical_salinity']
02:49:26 WARNING: Cannot get cube for: http://129.252.139.124/thredds/dodsC/enp.lbrf1.met.nc
Cube does not contain ['sea_water_salinity', 'sea_surface_salinity', 'sea_water_absolute_salinity', 'sea_water_practical_salinity']
02:49:29 WARNING: Cannot get cube for: http://129.252.139.124/thredds/dodsC/enp.bobf1.met.nc
Cube does not contain ['sea_water_salinity', 'sea_surface_salinity', 'sea_water_absolute_salinity', 'sea_water_practical_salinity']
02:49:32 WARNING: Cannot get cube for: http://129.252.139.124/thredds/dodsC/enp.trrf1.met.nc
Cube does not contain ['sea_water_salinity', 'sea_surface_salinity', 'sea_water_absolute_salinity', 'sea_water_practical_salinity']
02:49:35 WARNING: Cannot get cube for: http://129.252.139.124/thredds/dodsC/enp.wwef1.met.nc
Cube does not contain ['sea_water_salinity', 'sea_surface_salinity', 'sea_water_absolute_salinity', 'sea_water_practical_salinity']
02:49:37 WARNING: Cannot get cube for: http://129.252.139.124/thredds/dodsC/enp.lrif1.met.nc
Cube does not contain ['sea_water_salinity', 'sea_surface_salinity', 'sea_water_absolute_salinity', 'sea_water_practical_salinity']
02:49:40 WARNING: Cannot get cube for: http://129.252.139.124/thredds/dodsC/enp.bwsf1.met.nc
Cube does not contain ['sea_water_salinity', 'sea_surface_salinity', 'sea_water_absolute_salinity', 'sea_water_practical_salinity']
02:49:42 WARNING: Cannot get cube for: http://129.252.139.124/thredds/dodsC/enp.pkyf1.met.nc
Cube does not contain ['sea_water_salinity', 'sea_surface_salinity', 'sea_water_absolute_salinity', 'sea_water_practical_salinity']
02:49:45 WARNING: Cannot get cube for: http://129.252.139.124/thredds/dodsC/enp.lmdf1.met.nc
Cube does not contain ['sea_water_salinity', 'sea_surface_salinity', 'sea_water_absolute_salinity', 'sea_water_practical_salinity']
02:49:48 WARNING: Cannot get cube for: http://129.252.139.124/thredds/dodsC/enp.cnbf1.met.nc
Cube does not contain ['sea_water_salinity', 'sea_surface_salinity', 'sea_water_absolute_salinity', 'sea_water_practical_salinity']
02:49:50 WARNING: Cannot get cube for: http://129.252.139.124/thredds/dodsC/enp.hcef1.met.nc
Cube does not contain ['sea_water_salinity', 'sea_surface_salinity', 'sea_water_absolute_salinity', 'sea_water_practical_salinity']
02:49:53 WARNING: Cannot get cube for: http://129.252.139.124/thredds/dodsC/enp.jkyf1.met.nc
Cube does not contain ['sea_water_salinity', 'sea_surface_salinity', 'sea_water_absolute_salinity', 'sea_water_practical_salinity']
02:49:55 WARNING: Cannot get cube for: http://129.252.139.124/thredds/dodsC/enp.wrbf1.met.nc
Cube does not contain ['sea_water_salinity', 'sea_surface_salinity', 'sea_water_absolute_salinity', 'sea_water_practical_salinity']
02:49:58 WARNING: Cannot get cube for: http://129.252.139.124/thredds/dodsC/enp.gbif1.met.nc
Cube does not contain ['sea_water_salinity', 'sea_surface_salinity', 'sea_water_absolute_salinity', 'sea_water_practical_salinity']
02:50:01 WARNING: Cannot get cube for: http://129.252.139.124/thredds/dodsC/enp.ppta1.met.nc
Cube does not contain ['sea_water_salinity', 'sea_surface_salinity', 'sea_water_absolute_salinity', 'sea_water_practical_salinity']
02:50:04 WARNING: Cannot get cube for: http://129.252.139.124/thredds/dodsC/enp.bdvf1.met.nc
Cube does not contain ['sea_water_salinity', 'sea_surface_salinity', 'sea_water_absolute_salinity', 'sea_water_practical_salinity']
02:50:06 WARNING: Cannot get cube for: http://129.252.139.124/thredds/dodsC/enp.lrkf1.met.nc
Cube does not contain ['sea_water_salinity', 'sea_surface_salinity', 'sea_water_absolute_salinity', 'sea_water_practical_salinity']
02:50:09 WARNING: Cannot get cube for: http://129.252.139.124/thredds/dodsC/enp.bnkf1.met.nc
Cube does not contain ['sea_water_salinity', 'sea_surface_salinity', 'sea_water_absolute_salinity', 'sea_water_practical_salinity']
02:50:11 WARNING: Cannot get cube for: http://129.252.139.124/thredds/dodsC/enp.gbtf1.met.nc
Cube does not contain ['sea_water_salinity', 'sea_surface_salinity', 'sea_water_absolute_salinity', 'sea_water_practical_salinity']
02:50:14 WARNING: Cannot get cube for: http://129.252.139.124/thredds/dodsC/enp.tcvf1.met.nc
Cube does not contain ['sea_water_salinity', 'sea_surface_salinity', 'sea_water_absolute_salinity', 'sea_water_practical_salinity']
02:50:17 WARNING: Cannot get cube for: http://129.252.139.124/thredds/dodsC/enp.canf1.met.nc
Cube does not contain ['sea_water_salinity', 'sea_surface_salinity', 'sea_water_absolute_salinity', 'sea_water_practical_salinity']
02:50:19 WARNING: Cannot get cube for: http://129.252.139.124/thredds/dodsC/enp.lbsf1.met.nc
Cube does not contain ['sea_water_salinity', 'sea_surface_salinity', 'sea_water_absolute_salinity', 'sea_water_practical_salinity']
02:50:22 WARNING: Cannot get cube for: http://129.252.139.124/thredds/dodsC/enp.mukf1.met.nc
Cube does not contain ['sea_water_salinity', 'sea_surface_salinity', 'sea_water_absolute_salinity', 'sea_water_practical_salinity']
02:50:24 WARNING: Cannot get cube for: http://129.252.139.124/thredds/dodsC/enp.dkkf1.met.nc
Cube does not contain ['sea_water_salinity', 'sea_surface_salinity', 'sea_water_absolute_salinity', 'sea_water_practical_salinity']
02:50:27 WARNING: Cannot get cube for: http://129.252.139.124/thredds/dodsC/enp.cwaf1.met.nc
Cube does not contain ['sea_water_salinity', 'sea_surface_salinity', 'sea_water_absolute_salinity', 'sea_water_practical_salinity']
02:50:36 WARNING: /home/filipe/miniconda/envs/SECOORA/lib/python2.7/site-packages/iris/fileformats/_pyke_rules/compiled_krb/fc_rules_cf_fc.py:1196: UserWarning: Ignoring netCDF variable 'phosphate' invalid units 'uM'
  warnings.warn(msg.format(msg_name, msg_units))

02:50:36 WARNING: /home/filipe/miniconda/envs/SECOORA/lib/python2.7/site-packages/iris/fileformats/_pyke_rules/compiled_krb/fc_rules_cf_fc.py:1196: UserWarning: Ignoring netCDF variable 'photosynthetically_available_radiation' invalid units 'micromoles_per_m^2'
  warnings.warn(msg.format(msg_name, msg_units))

02:50:42 INFO: ********************* Collector offerings **********************
02:50:42 INFO: NOAA.NOS.CO-OPS SOS: 1027 offerings
02:50:43 INFO: SOS URL request: http://opendap.co-ops.nos.noaa.gov/ioos-dif-sos/SOS?eventTime=2014-06-30T12%3A00%3A00Z&service=SOS&offering=urn%3Aioos%3Anetwork%3ANOAA.NOS.CO-OPS%3AMetActive&request=GetObservation&version=1.0.0&responseFormat=text%2Fcsv&featureOfInterest=BBOX%3A-87.4%2C24.25%2C-74.7%2C36.7&observedProperty=salinity
02:51:26 INFO: ************************* Observations *************************
02:51:26 INFO: **** Downloading to file 2014-07-07/2014-07-07-OBS_DATA.nc *****
02:51:30 INFO: ********************* SECOORA Observations *********************
02:51:30 INFO:  Downloading to file 2014-07-07/2014-07-07-SECOORA_OBS_DATA.nc *
02:51:30 INFO: **************************** Models ****************************
02:51:30 INFO: 
[Reading url 1/11]: http://crow.marine.usf.edu:8080/thredds/dodsC/FVCOM-Nowcast-Agg.nc
02:56:32 WARNING: Cannot get cube for: http://crow.marine.usf.edu:8080/thredds/dodsC/FVCOM-Nowcast-Agg.nc
Timed out!
02:56:32 INFO: 
[Reading url 2/11]: http://crow.marine.usf.edu:8080/thredds/dodsC/WFS_ROMS_NF_model/USF_Ocean_Circulation_Group_West_Florida_Shelf_Daily_ROMS_Nowcast_Forecast_Model_Data_best.ncd
02:56:37 INFO: 
[Reading url 3/11]: http://geoport.whoi.edu/thredds/dodsC/coawst_4/use/fmrc/coawst_4_use_best.ncd
02:57:00 INFO: 
[Reading url 4/11]: http://omgsrv1.meas.ncsu.edu:8080/thredds/dodsC/fmrc/sabgom/SABGOM_Forecast_Model_Run_Collection_best.ncd
02:57:29 WARNING: Cannot get cube for: http://omgsrv1.meas.ncsu.edu:8080/thredds/dodsC/fmrc/sabgom/SABGOM_Forecast_Model_Run_Collection_best.ncd
istart must be different from istop! Got istart 0 and  istop 0
02:57:29 INFO: 
[Reading url 5/11]: http://oos.soest.hawaii.edu/thredds/dodsC/pacioos/hycom/global
02:57:33 INFO: 
[Reading url 6/11]: http://tds.marine.rutgers.edu/thredds/dodsC/roms/espresso/2013_da/his_Best/ESPRESSO_Real-Time_v2_History_Best_Available_best.ncd
02:57:40 INFO: 
[Reading url 7/11]: http://thredds.axiomalaska.com/thredds/dodsC/Aquarius_V3_SSS_Daily.nc
02:57:44 WARNING: Cannot get cube for: http://thredds.axiomalaska.com/thredds/dodsC/Aquarius_V3_SSS_Daily.nc
istart must be different from istop! Got istart 992 and  istop 992
02:57:44 INFO: 
[Reading url 8/11]: http://thredds.axiomalaska.com/thredds/dodsC/Aquarius_V3_SSS_Monthly.nc
02:57:47 WARNING: Cannot get cube for: http://thredds.axiomalaska.com/thredds/dodsC/Aquarius_V3_SSS_Monthly.nc
istart must be different from istop! Got istart 35 and  istop 35
02:57:47 INFO: 
[Reading url 9/11]: http://thredds.axiomalaska.com/thredds/dodsC/Aquarius_V3_SSS_Weekly.nc
02:57:52 WARNING: Cannot get cube for: http://thredds.axiomalaska.com/thredds/dodsC/Aquarius_V3_SSS_Weekly.nc
istart must be different from istop! Got istart 149 and  istop 149
02:57:52 INFO: 
[Reading url 10/11]: http://omgsrv1.meas.ncsu.edu:8080/thredds/dodsC/fmrc/us_east/US_East_Forecast_Model_Run_Collection_best.ncd
02:58:02 WARNING: Cannot get cube for: http://omgsrv1.meas.ncsu.edu:8080/thredds/dodsC/fmrc/us_east/US_East_Forecast_Model_Run_Collection_best.ncd
istart must be different from istop! Got istart 0 and  istop 0
02:58:02 INFO: 
[Reading url 11/11]: http://crow.marine.usf.edu:8080/thredds/dodsC/WFS_SWAN_NF_model/USF_Ocean_Circulation_Group_West_Florida_Shelf_Daily_SWAN_Nowcast_Forecast_Wave_Model_Data_best.ncd
02:58:03 WARNING: Cannot get cube for: http://crow.marine.usf.edu:8080/thredds/dodsC/WFS_SWAN_NF_model/USF_Ocean_Circulation_Group_West_Florida_Shelf_Daily_SWAN_Nowcast_Forecast_Wave_Model_Data_best.ncd
Cube does not contain ['sea_water_salinity', 'sea_surface_salinity', 'sea_water_absolute_salinity', 'sea_water_practical_salinity']
02:58:03 INFO: **** Downloading to file 2014-07-07/2014-07-07-USF_ROMS.nc *****
02:58:03 INFO: [No Data] Mayport (Bar Pilots Dock), FL
02:58:03 INFO: [No Data] I-295 Bridge, St Johns River, FL
02:58:03 INFO: [No Data] Tolomato River station
02:58:05 INFO: [Water  ] Shell Point station
02:58:05 INFO: [No Data] Cherry Grove Pier, N. Myrtle Beach, SC
02:58:06 INFO: [Water  ] Gulf of Mexico station
02:58:10 INFO: [Water  ] Shell Point
02:58:10 INFO: [No Data] St Lucie Inlet station
02:58:11 INFO: [Water  ] Redfish Pass station
02:58:11 INFO: [No Data] fau_lobo_1
02:58:11 INFO: [No Data] CORMP ILM3, Wrightsville Beach Offshore, NC
02:58:11 INFO: [No Data] Fort Myers station
02:58:11 INFO: [No Data] CAROCOOPS SUN2, Sunset Nearshore, NC
02:58:11 INFO: [No Data] CORMP ILM2, Wrightsville Beach Nearshore, NC
02:58:11 INFO: [No Data] Bing&#39;s Landing station
02:58:12 INFO: [Water  ] Tarpon Bay station
02:58:12 INFO: [No Data] Apache Pier, Myrtle Beach, SC
02:58:30 INFO: Finished processing [USF_ROMS]: http://crow.marine.usf.edu:8080/thredds/dodsC/WFS_SWAN_NF_model/USF_Ocean_Circulation_Group_West_Florida_Shelf_Daily_SWAN_Nowcast_Forecast_Wave_Model_Data_best.ncd

02:58:30 INFO: **** Downloading to file 2014-07-07/2014-07-07-COAWST_4.nc *****
02:58:38 INFO: [Land   ] Mayport (Bar Pilots Dock), FL
02:58:44 INFO: [Land   ] I-295 Bridge, St Johns River, FL
02:58:49 INFO: [Land   ] Tolomato River station
02:59:02 INFO: [Land   ] Shell Point station
02:59:10 INFO: [Land   ] Cherry Grove Pier, N. Myrtle Beach, SC
02:59:22 INFO: [Water  ] Gulf of Mexico station
02:59:27 INFO: [Land   ] Shell Point
02:59:38 INFO: [Water  ] St Lucie Inlet station
02:59:49 INFO: [Water  ] Redfish Pass station
02:59:54 INFO: [Land   ] fau_lobo_1
03:00:00 INFO: [Water  ] CORMP ILM3, Wrightsville Beach Offshore, NC
03:00:05 INFO: [Land   ] Fort Myers station
03:00:10 INFO: [Water  ] CAROCOOPS SUN2, Sunset Nearshore, NC
03:00:20 INFO: [Water  ] CORMP ILM2, Wrightsville Beach Nearshore, NC
03:00:26 INFO: [Land   ] Bing&#39;s Landing station
03:00:31 INFO: [Water  ] Tarpon Bay station
03:00:36 INFO: [Land   ] Apache Pier, Myrtle Beach, SC
03:02:47 INFO: Finished processing [COAWST_4]: http://crow.marine.usf.edu:8080/thredds/dodsC/WFS_SWAN_NF_model/USF_Ocean_Circulation_Group_West_Florida_Shelf_Daily_SWAN_Nowcast_Forecast_Wave_Model_Data_best.ncd

03:02:47 INFO: **** Downloading to file 2014-07-07/2014-07-07-ESPRESSO.nc *****
03:02:47 INFO: [No Data] Mayport (Bar Pilots Dock), FL
03:02:47 INFO: [No Data] I-295 Bridge, St Johns River, FL
03:02:47 INFO: [No Data] Tolomato River station
03:02:47 INFO: [No Data] Shell Point station
03:02:47 INFO: [No Data] Cherry Grove Pier, N. Myrtle Beach, SC
03:02:47 INFO: [No Data] Gulf of Mexico station
03:02:47 INFO: [No Data] Shell Point
03:02:47 INFO: [No Data] St Lucie Inlet station
03:02:47 INFO: [No Data] Redfish Pass station
03:02:47 INFO: [No Data] fau_lobo_1
03:02:47 INFO: [No Data] CORMP ILM3, Wrightsville Beach Offshore, NC
03:02:47 INFO: [No Data] Fort Myers station
03:02:47 INFO: [No Data] CAROCOOPS SUN2, Sunset Nearshore, NC
03:02:47 INFO: [No Data] CORMP ILM2, Wrightsville Beach Nearshore, NC
03:02:47 INFO: [No Data] Bing&#39;s Landing station
03:02:47 INFO: [No Data] Tarpon Bay station
03:02:47 INFO: [No Data] Apache Pier, Myrtle Beach, SC
03:02:47 INFO: Finished processing [ESPRESSO]: http://crow.marine.usf.edu:8080/thredds/dodsC/WFS_SWAN_NF_model/USF_Ocean_Circulation_Group_West_Florida_Shelf_Daily_SWAN_Nowcast_Forecast_Wave_Model_Data_best.ncd

03:02:47 INFO: ****** Downloading to file 2014-07-07/2014-07-07-HYCOM.nc ******
03:02:50 INFO: [Land   ] Mayport (Bar Pilots Dock), FL
03:02:52 INFO: [Land   ] I-295 Bridge, St Johns River, FL
03:02:54 INFO: [Land   ] Tolomato River station
03:02:57 INFO: [Land   ] Shell Point station
03:02:59 INFO: [Land   ] Cherry Grove Pier, N. Myrtle Beach, SC
03:03:01 INFO: [Land   ] Gulf of Mexico station
03:03:04 INFO: [Land   ] Shell Point
03:03:07 INFO: [Land   ] St Lucie Inlet station
03:03:09 INFO: [Land   ] Redfish Pass station
03:03:12 INFO: [Land   ] fau_lobo_1
03:03:15 INFO: [Water  ] CORMP ILM3, Wrightsville Beach Offshore, NC
03:03:15 INFO: [No Data] Fort Myers station
03:03:18 INFO: [Water  ] CAROCOOPS SUN2, Sunset Nearshore, NC
03:03:18 INFO: [No Data] CORMP ILM2, Wrightsville Beach Nearshore, NC
03:03:22 INFO: [Land   ] Bing&#39;s Landing station
03:03:29 INFO: [Land   ] Tarpon Bay station
03:03:32 INFO: [Land   ] Apache Pier, Myrtle Beach, SC
03:03:32 INFO: Finished processing [HYCOM]: http://crow.marine.usf.edu:8080/thredds/dodsC/WFS_SWAN_NF_model/USF_Ocean_Circulation_Group_West_Florida_Shelf_Daily_SWAN_Nowcast_Forecast_Wave_Model_Data_best.ncd

03:03:33 WARNING: /home/filipe/miniconda/envs/SECOORA/lib/python2.7/site-packages/numpy/core/_methods.py:59: RuntimeWarning: Mean of empty slice.
  warnings.warn("Mean of empty slice.", RuntimeWarning)

03:03:41 INFO: 16.86 minutes
03:03:41 INFO: EOF
