12:00:39 INFO: *********************** Run information ************************
12:00:39 INFO: Run date: 2015-02-04 15:00:39
12:00:39 INFO: Download start: 2014-06-30 12:00:00
12:00:39 INFO: Download stop: 2014-07-07 12:00:00
12:00:39 INFO: Bounding box: -87.40, 24.25,-74.70, 36.70
12:00:39 INFO: *********************** Software version ***********************
12:00:39 INFO: Iris version: 1.7.2-DEV
12:00:39 INFO: owslib version: 0.8-dev
12:00:39 INFO: pyoos version: 0.6.2
12:00:42 INFO: ********************* Catalog information **********************
12:00:42 INFO: URL: http://www.ngdc.noaa.gov/geoportal/csw
12:00:42 INFO: CSW version: 2.0.2
12:00:42 INFO: Number of datasets available: 10
12:00:42 INFO: ***************************** CSW ******************************
12:00:42 INFO: USF FVCOM - Nowcast Aggregation
12:00:42 INFO: ROMS/TOMS 3.0 - New Floria Shelf Application
12:00:42 INFO: ROMS/TOMS 3.0 - South-Atlantic Bight and Gulf of Mexico
12:00:42 INFO: COAWST Forecast System : USGS : US East Coast and Gulf of Mexico (Experimental)
12:00:42 INFO: ROMS ESPRESSO Real-Time Operational IS4DVAR Forecast System Version 2 (NEW) 2013-present FMRC History (Best)
12:00:42 INFO: HYbrid Coordinate Ocean Model (HYCOM): Global
12:00:42 INFO: National Data Buoy Center SOS
12:00:42 INFO: Aquarius Level 3 Sea Surface Salinity Standard Mapped Image Daily Data V3.0
12:00:42 INFO: Aquarius Level 3 Sea Surface Salinity Standard Mapped Image Monthly Data V3.0
12:00:42 INFO: Aquarius Level 3 Sea Surface Salinity Standard Mapped Image Weekly Data V3.0
12:00:42 INFO: ***************************** DAP ******************************
12:00:42 INFO: http://crow.marine.usf.edu:8080/thredds/dodsC/FVCOM-Nowcast-Agg.nc.html
12:00:42 INFO: http://crow.marine.usf.edu:8080/thredds/dodsC/WFS_ROMS_NF_model/USF_Ocean_Circulation_Group_West_Florida_Shelf_Daily_ROMS_Nowcast_Forecast_Model_Data_best.ncd.html
12:00:42 INFO: http://geoport.whoi.edu/thredds/dodsC/coawst_4/use/fmrc/coawst_4_use_best.ncd.html
12:00:42 INFO: http://omgsrv1.meas.ncsu.edu:8080/thredds/dodsC/fmrc/sabgom/SABGOM_Forecast_Model_Run_Collection_best.ncd.html
12:00:42 INFO: http://oos.soest.hawaii.edu/thredds/dodsC/pacioos/hycom/global.html
12:00:42 INFO: http://tds.marine.rutgers.edu/thredds/dodsC/roms/espresso/2013_da/his_Best/ESPRESSO_Real-Time_v2_History_Best_Available_best.ncd.html
12:00:42 INFO: http://thredds.axiomalaska.com/thredds/dodsC/Aquarius_V3_SSS_Daily.nc.html
12:00:42 INFO: http://thredds.axiomalaska.com/thredds/dodsC/Aquarius_V3_SSS_Monthly.nc.html
12:00:42 INFO: http://thredds.axiomalaska.com/thredds/dodsC/Aquarius_V3_SSS_Weekly.nc.html
12:00:42 INFO: ***************************** SOS ******************************
12:00:42 INFO: http://sdf.ndbc.noaa.gov/sos/server.php?service=SOS&request=GetCapabilities&acceptVersions=1.0.0
12:00:43 WARNING: USEAST not in the NGDC csw
12:00:43 WARNING: USF_SWAN not in the NGDC csw
12:00:48 WARNING: /home/filipe/miniconda/envs/SECOORA/lib/python2.7/site-packages/iris/fileformats/_pyke_rules/compiled_krb/fc_rules_cf_fc.py:1359: UserWarning: Failed to create 'time' dimension coordinate: The points array must be strictly monotonic.
Gracefully creating 'time' auxiliary coordinate instead.
  error=e_msg))

12:00:48 WARNING: Cannot get cube for: http://129.252.139.124/thredds/dodsC/fit.sispnj.met.nc
Cube does not contain ['sea_water_salinity', 'sea_surface_salinity', 'sea_water_absolute_salinity', 'sea_water_practical_salinity']
12:00:52 WARNING: Cannot get cube for: http://129.252.139.124/thredds/dodsC/usf.nfb.ngwlms.nc
Cube does not contain ['sea_water_salinity', 'sea_surface_salinity', 'sea_water_absolute_salinity', 'sea_water_practical_salinity']
12:00:56 WARNING: Cannot get cube for: http://129.252.139.124/thredds/dodsC/usf.tas.ngwlms.nc
Cube does not contain ['sea_water_salinity', 'sea_surface_salinity', 'sea_water_absolute_salinity', 'sea_water_practical_salinity']
12:01:00 WARNING: Cannot get cube for: http://129.252.139.124/thredds/dodsC/usf.apk.ngwlms.nc
Cube does not contain ['sea_water_salinity', 'sea_surface_salinity', 'sea_water_absolute_salinity', 'sea_water_practical_salinity']
12:01:04 WARNING: Cannot get cube for: http://129.252.139.124/thredds/dodsC/usf.c21.weatherpak.nc
Cube does not contain ['sea_water_salinity', 'sea_surface_salinity', 'sea_water_absolute_salinity', 'sea_water_practical_salinity']
12:01:12 WARNING: Cannot get cube for: http://129.252.139.124/thredds/dodsC/usf.bcp.ngwlms.nc
Cube does not contain ['sea_water_salinity', 'sea_surface_salinity', 'sea_water_absolute_salinity', 'sea_water_practical_salinity']
12:01:17 WARNING: Cannot get cube for: http://129.252.139.124/thredds/dodsC/usf.fhp.ngwlms.nc
Cube does not contain ['sea_water_salinity', 'sea_surface_salinity', 'sea_water_absolute_salinity', 'sea_water_practical_salinity']
12:01:20 WARNING: Cannot get cube for: http://129.252.139.124/thredds/dodsC/usf.c10.mcat.nc
istart must be different from istop! Got istart 48233 and  istop 48233
12:01:23 WARNING: Cannot get cube for: http://129.252.139.124/thredds/dodsC/usf.c12.mcat.nc
istart must be different from istop! Got istart 18711 and  istop 18711
12:01:25 WARNING: Cannot get cube for: http://129.252.139.124/thredds/dodsC/usf.c13.mcat.nc
istart must be different from istop! Got istart 18099 and  istop 18099
12:01:27 WARNING: Cannot get cube for: http://129.252.139.124/thredds/dodsC/usf.c10.mcat_2011.nc
istart must be different from istop! Got istart 26303 and  istop 26303
12:01:30 WARNING: Cannot get cube for: http://129.252.139.124/thredds/dodsC/usf.c12.mcat_2011.nc
istart must be different from istop! Got istart 26303 and  istop 26303
12:01:32 WARNING: Cannot get cube for: http://129.252.139.124/thredds/dodsC/usf.c13.mcat_2011.nc
istart must be different from istop! Got istart 26303 and  istop 26303
12:01:39 WARNING: Cannot get cube for: http://129.252.139.124/thredds/dodsC/carocoops.frp2.buoy.nc
Cube does not contain ['sea_water_salinity', 'sea_surface_salinity', 'sea_water_absolute_salinity', 'sea_water_practical_salinity']
12:01:43 WARNING: Cannot get cube for: http://129.252.139.124/thredds/dodsC/carocoops.cap2.buoy.nc
Cube does not contain ['sea_water_salinity', 'sea_surface_salinity', 'sea_water_absolute_salinity', 'sea_water_practical_salinity']
12:01:54 WARNING: Cannot get cube for: http://129.252.139.124/thredds/dodsC/cormp.ilm1.buoy.nc
istart must be different from istop! Got istart 1443 and  istop 1443
12:01:57 WARNING: Cannot get cube for: http://129.252.139.124/thredds/dodsC/cormp.lej3.buoy.nc
istart must be different from istop! Got istart 91490 and  istop 91490
12:01:59 WARNING: /home/filipe/miniconda/envs/SECOORA/lib/python2.7/site-packages/iris/fileformats/_pyke_rules/compiled_krb/fc_rules_cf_fc.py:1196: UserWarning: Ignoring netCDF variable 'dissolved_oxygen_saturation' invalid units 'mg_L-1'
  warnings.warn(msg.format(msg_name, msg_units))

12:02:00 WARNING: /home/filipe/miniconda/envs/SECOORA/lib/python2.7/site-packages/iris/fileformats/_pyke_rules/compiled_krb/fc_rules_cf_fc.py:1196: UserWarning: Ignoring netCDF variable 'dissolved_oxygen' invalid units 'mg_L-1'
  warnings.warn(msg.format(msg_name, msg_units))

12:02:00 WARNING: /home/filipe/miniconda/envs/SECOORA/lib/python2.7/site-packages/iris/fileformats/_pyke_rules/compiled_krb/fc_rules_cf_fc.py:1196: UserWarning: Ignoring netCDF variable 'cdom' invalid units 'QSDE'
  warnings.warn(msg.format(msg_name, msg_units))

12:02:00 WARNING: /home/filipe/miniconda/envs/SECOORA/lib/python2.7/site-packages/iris/fileformats/_pyke_rules/compiled_krb/fc_rules_cf_fc.py:1196: UserWarning: Ignoring netCDF variable 'turbidity' invalid units 'ntu'
  warnings.warn(msg.format(msg_name, msg_units))

12:02:00 WARNING: /home/filipe/miniconda/envs/SECOORA/lib/python2.7/site-packages/iris/fileformats/_pyke_rules/compiled_krb/fc_rules_cf_fc.py:1196: UserWarning: Ignoring netCDF variable 'conductivity' invalid units 'mS_cm-1'
  warnings.warn(msg.format(msg_name, msg_units))

12:02:03 WARNING: /home/filipe/miniconda/envs/SECOORA/lib/python2.7/site-packages/iris/fileformats/_pyke_rules/compiled_krb/fc_rules_cf_fc.py:1196: UserWarning: Ignoring netCDF variable 'nitrate' invalid units 'uM'
  warnings.warn(msg.format(msg_name, msg_units))

12:02:14 WARNING: /home/filipe/miniconda/envs/SECOORA/lib/python2.7/site-packages/iris/fileformats/_pyke_rules/compiled_krb/fc_rules_cf_fc.py:1196: UserWarning: Ignoring netCDF variable 'conductivity_2' invalid units 'mS_cm-1'
  warnings.warn(msg.format(msg_name, msg_units))

12:02:18 WARNING: Cannot get cube for: http://129.252.139.124/thredds/dodsC/fldep.poncedeleonsouth..nc
Cube does not contain ['sea_water_salinity', 'sea_surface_salinity', 'sea_water_absolute_salinity', 'sea_water_practical_salinity']
12:02:23 WARNING: Cannot get cube for: http://129.252.139.124/thredds/dodsC/fldep.redbaypoint..nc
Cube does not contain ['sea_water_salinity', 'sea_surface_salinity', 'sea_water_absolute_salinity', 'sea_water_practical_salinity']
12:02:32 WARNING: Cannot get cube for: http://129.252.139.124/thredds/dodsC/fldep.naplesbay..nc
Cube does not contain ['sea_water_salinity', 'sea_surface_salinity', 'sea_water_absolute_salinity', 'sea_water_practical_salinity']
12:02:36 WARNING: Cannot get cube for: http://129.252.139.124/thredds/dodsC/fldep.gordonriverinlet..nc
Cube does not contain ['sea_water_salinity', 'sea_surface_salinity', 'sea_water_absolute_salinity', 'sea_water_practical_salinity']
12:02:40 WARNING: Cannot get cube for: http://129.252.139.124/thredds/dodsC/fldep.melbourne..nc
Cube does not contain ['sea_water_salinity', 'sea_surface_salinity', 'sea_water_absolute_salinity', 'sea_water_practical_salinity']
12:02:44 WARNING: Cannot get cube for: http://129.252.139.124/thredds/dodsC/fldep.binneydock..nc
Cube does not contain ['sea_water_salinity', 'sea_surface_salinity', 'sea_water_absolute_salinity', 'sea_water_practical_salinity']
12:02:48 WARNING: Cannot get cube for: http://129.252.139.124/thredds/dodsC/fldep.verobeach..nc
Cube does not contain ['sea_water_salinity', 'sea_surface_salinity', 'sea_water_absolute_salinity', 'sea_water_practical_salinity']
12:02:52 WARNING: Cannot get cube for: http://129.252.139.124/thredds/dodsC/lbhmc.2ndave.pier.nc
Cube does not contain ['sea_water_salinity', 'sea_surface_salinity', 'sea_water_absolute_salinity', 'sea_water_practical_salinity']
12:02:56 WARNING: /home/filipe/miniconda/envs/SECOORA/lib/python2.7/site-packages/iris/fileformats/_pyke_rules/compiled_krb/fc_rules_cf_fc.py:1196: UserWarning: Ignoring netCDF variable 'turbidity_2' invalid units 'ntu'
  warnings.warn(msg.format(msg_name, msg_units))

12:02:56 WARNING: /home/filipe/miniconda/envs/SECOORA/lib/python2.7/site-packages/iris/fileformats/_pyke_rules/compiled_krb/fc_rules_cf_fc.py:1196: UserWarning: Ignoring netCDF variable 'dissolved_oxygen_2' invalid units 'mg_L-1'
  warnings.warn(msg.format(msg_name, msg_units))

12:03:02 WARNING: Cannot get cube for: http://129.252.139.124/thredds/dodsC/enp.wiwf1.met.nc
Cube does not contain ['sea_water_salinity', 'sea_surface_salinity', 'sea_water_absolute_salinity', 'sea_water_practical_salinity']
12:03:05 WARNING: Cannot get cube for: http://129.252.139.124/thredds/dodsC/enp.lbrf1.met.nc
Cube does not contain ['sea_water_salinity', 'sea_surface_salinity', 'sea_water_absolute_salinity', 'sea_water_practical_salinity']
12:03:09 WARNING: Cannot get cube for: http://129.252.139.124/thredds/dodsC/enp.bobf1.met.nc
Cube does not contain ['sea_water_salinity', 'sea_surface_salinity', 'sea_water_absolute_salinity', 'sea_water_practical_salinity']
12:03:12 WARNING: Cannot get cube for: http://129.252.139.124/thredds/dodsC/enp.trrf1.met.nc
Cube does not contain ['sea_water_salinity', 'sea_surface_salinity', 'sea_water_absolute_salinity', 'sea_water_practical_salinity']
12:03:15 WARNING: Cannot get cube for: http://129.252.139.124/thredds/dodsC/enp.wwef1.met.nc
Cube does not contain ['sea_water_salinity', 'sea_surface_salinity', 'sea_water_absolute_salinity', 'sea_water_practical_salinity']
12:03:18 WARNING: Cannot get cube for: http://129.252.139.124/thredds/dodsC/enp.lrif1.met.nc
Cube does not contain ['sea_water_salinity', 'sea_surface_salinity', 'sea_water_absolute_salinity', 'sea_water_practical_salinity']
12:03:21 WARNING: Cannot get cube for: http://129.252.139.124/thredds/dodsC/enp.bwsf1.met.nc
Cube does not contain ['sea_water_salinity', 'sea_surface_salinity', 'sea_water_absolute_salinity', 'sea_water_practical_salinity']
12:03:25 WARNING: Cannot get cube for: http://129.252.139.124/thredds/dodsC/enp.pkyf1.met.nc
Cube does not contain ['sea_water_salinity', 'sea_surface_salinity', 'sea_water_absolute_salinity', 'sea_water_practical_salinity']
12:03:29 WARNING: Cannot get cube for: http://129.252.139.124/thredds/dodsC/enp.lmdf1.met.nc
Cube does not contain ['sea_water_salinity', 'sea_surface_salinity', 'sea_water_absolute_salinity', 'sea_water_practical_salinity']
12:03:33 WARNING: Cannot get cube for: http://129.252.139.124/thredds/dodsC/enp.cnbf1.met.nc
Cube does not contain ['sea_water_salinity', 'sea_surface_salinity', 'sea_water_absolute_salinity', 'sea_water_practical_salinity']
12:03:37 WARNING: Cannot get cube for: http://129.252.139.124/thredds/dodsC/enp.hcef1.met.nc
Cube does not contain ['sea_water_salinity', 'sea_surface_salinity', 'sea_water_absolute_salinity', 'sea_water_practical_salinity']
12:03:40 WARNING: Cannot get cube for: http://129.252.139.124/thredds/dodsC/enp.jkyf1.met.nc
Cube does not contain ['sea_water_salinity', 'sea_surface_salinity', 'sea_water_absolute_salinity', 'sea_water_practical_salinity']
12:03:44 WARNING: Cannot get cube for: http://129.252.139.124/thredds/dodsC/enp.wrbf1.met.nc
Cube does not contain ['sea_water_salinity', 'sea_surface_salinity', 'sea_water_absolute_salinity', 'sea_water_practical_salinity']
12:03:48 WARNING: Cannot get cube for: http://129.252.139.124/thredds/dodsC/enp.gbif1.met.nc
Cube does not contain ['sea_water_salinity', 'sea_surface_salinity', 'sea_water_absolute_salinity', 'sea_water_practical_salinity']
12:03:51 WARNING: Cannot get cube for: http://129.252.139.124/thredds/dodsC/enp.ppta1.met.nc
Cube does not contain ['sea_water_salinity', 'sea_surface_salinity', 'sea_water_absolute_salinity', 'sea_water_practical_salinity']
12:03:54 WARNING: Cannot get cube for: http://129.252.139.124/thredds/dodsC/enp.bdvf1.met.nc
Cube does not contain ['sea_water_salinity', 'sea_surface_salinity', 'sea_water_absolute_salinity', 'sea_water_practical_salinity']
12:03:57 WARNING: Cannot get cube for: http://129.252.139.124/thredds/dodsC/enp.lrkf1.met.nc
Cube does not contain ['sea_water_salinity', 'sea_surface_salinity', 'sea_water_absolute_salinity', 'sea_water_practical_salinity']
12:04:00 WARNING: Cannot get cube for: http://129.252.139.124/thredds/dodsC/enp.bnkf1.met.nc
Cube does not contain ['sea_water_salinity', 'sea_surface_salinity', 'sea_water_absolute_salinity', 'sea_water_practical_salinity']
12:04:03 WARNING: Cannot get cube for: http://129.252.139.124/thredds/dodsC/enp.gbtf1.met.nc
Cube does not contain ['sea_water_salinity', 'sea_surface_salinity', 'sea_water_absolute_salinity', 'sea_water_practical_salinity']
12:04:06 WARNING: Cannot get cube for: http://129.252.139.124/thredds/dodsC/enp.tcvf1.met.nc
Cube does not contain ['sea_water_salinity', 'sea_surface_salinity', 'sea_water_absolute_salinity', 'sea_water_practical_salinity']
12:04:09 WARNING: Cannot get cube for: http://129.252.139.124/thredds/dodsC/enp.canf1.met.nc
Cube does not contain ['sea_water_salinity', 'sea_surface_salinity', 'sea_water_absolute_salinity', 'sea_water_practical_salinity']
12:04:11 WARNING: Cannot get cube for: http://129.252.139.124/thredds/dodsC/enp.lbsf1.met.nc
Cube does not contain ['sea_water_salinity', 'sea_surface_salinity', 'sea_water_absolute_salinity', 'sea_water_practical_salinity']
12:04:14 WARNING: Cannot get cube for: http://129.252.139.124/thredds/dodsC/enp.mukf1.met.nc
Cube does not contain ['sea_water_salinity', 'sea_surface_salinity', 'sea_water_absolute_salinity', 'sea_water_practical_salinity']
12:04:17 WARNING: Cannot get cube for: http://129.252.139.124/thredds/dodsC/enp.dkkf1.met.nc
Cube does not contain ['sea_water_salinity', 'sea_surface_salinity', 'sea_water_absolute_salinity', 'sea_water_practical_salinity']
12:04:20 WARNING: Cannot get cube for: http://129.252.139.124/thredds/dodsC/enp.cwaf1.met.nc
Cube does not contain ['sea_water_salinity', 'sea_surface_salinity', 'sea_water_absolute_salinity', 'sea_water_practical_salinity']
12:04:29 WARNING: /home/filipe/miniconda/envs/SECOORA/lib/python2.7/site-packages/iris/fileformats/_pyke_rules/compiled_krb/fc_rules_cf_fc.py:1196: UserWarning: Ignoring netCDF variable 'phosphate' invalid units 'uM'
  warnings.warn(msg.format(msg_name, msg_units))

12:04:29 WARNING: /home/filipe/miniconda/envs/SECOORA/lib/python2.7/site-packages/iris/fileformats/_pyke_rules/compiled_krb/fc_rules_cf_fc.py:1196: UserWarning: Ignoring netCDF variable 'photosynthetically_available_radiation' invalid units 'micromoles_per_m^2'
  warnings.warn(msg.format(msg_name, msg_units))

12:04:35 INFO: ********************* Collector offerings **********************
12:04:35 INFO: NOAA.NOS.CO-OPS SOS: 1030 offerings
12:04:37 INFO: SOS URL request: http://opendap.co-ops.nos.noaa.gov/ioos-dif-sos/SOS?eventTime=2014-06-30T12%3A00%3A00Z&service=SOS&offering=urn%3Aioos%3Anetwork%3ANOAA.NOS.CO-OPS%3AMetActive&request=GetObservation&version=1.0.0&responseFormat=text%2Fcsv&featureOfInterest=BBOX%3A-87.4%2C24.25%2C-74.7%2C36.7&observedProperty=salinity
12:05:22 INFO: ************************* Observations *************************
12:05:22 INFO: **** Downloading to file 2014-07-07/2014-07-07-OBS_DATA.nc *****
12:05:27 INFO: ********************* SECOORA Observations *********************
12:05:27 INFO:  Downloading to file 2014-07-07/2014-07-07-SECOORA_OBS_DATA.nc *
12:05:27 INFO: **************************** Models ****************************
12:05:27 INFO: 
[Reading url 1/11]: http://crow.marine.usf.edu:8080/thredds/dodsC/FVCOM-Nowcast-Agg.nc
12:10:28 WARNING: Cannot get cube for: http://crow.marine.usf.edu:8080/thredds/dodsC/FVCOM-Nowcast-Agg.nc
Timed out!
12:10:28 INFO: 
[Reading url 2/11]: http://crow.marine.usf.edu:8080/thredds/dodsC/WFS_ROMS_NF_model/USF_Ocean_Circulation_Group_West_Florida_Shelf_Daily_ROMS_Nowcast_Forecast_Model_Data_best.ncd
12:10:34 INFO: 
[Reading url 3/11]: http://geoport.whoi.edu/thredds/dodsC/coawst_4/use/fmrc/coawst_4_use_best.ncd
12:10:57 INFO: 
[Reading url 4/11]: http://omgsrv1.meas.ncsu.edu:8080/thredds/dodsC/fmrc/sabgom/SABGOM_Forecast_Model_Run_Collection_best.ncd
12:11:21 WARNING: Cannot get cube for: http://omgsrv1.meas.ncsu.edu:8080/thredds/dodsC/fmrc/sabgom/SABGOM_Forecast_Model_Run_Collection_best.ncd
istart must be different from istop! Got istart 0 and  istop 0
12:11:21 INFO: 
[Reading url 5/11]: http://oos.soest.hawaii.edu/thredds/dodsC/pacioos/hycom/global
12:11:24 INFO: 
[Reading url 6/11]: http://tds.marine.rutgers.edu/thredds/dodsC/roms/espresso/2013_da/his_Best/ESPRESSO_Real-Time_v2_History_Best_Available_best.ncd
12:11:32 INFO: 
[Reading url 7/11]: http://thredds.axiomalaska.com/thredds/dodsC/Aquarius_V3_SSS_Daily.nc
12:11:36 WARNING: Cannot get cube for: http://thredds.axiomalaska.com/thredds/dodsC/Aquarius_V3_SSS_Daily.nc
istart must be different from istop! Got istart 992 and  istop 992
12:11:36 INFO: 
[Reading url 8/11]: http://thredds.axiomalaska.com/thredds/dodsC/Aquarius_V3_SSS_Monthly.nc
12:11:45 WARNING: Cannot get cube for: http://thredds.axiomalaska.com/thredds/dodsC/Aquarius_V3_SSS_Monthly.nc
istart must be different from istop! Got istart 35 and  istop 35
12:11:45 INFO: 
[Reading url 9/11]: http://thredds.axiomalaska.com/thredds/dodsC/Aquarius_V3_SSS_Weekly.nc
12:11:53 WARNING: Cannot get cube for: http://thredds.axiomalaska.com/thredds/dodsC/Aquarius_V3_SSS_Weekly.nc
istart must be different from istop! Got istart 149 and  istop 149
12:11:53 INFO: 
[Reading url 10/11]: http://omgsrv1.meas.ncsu.edu:8080/thredds/dodsC/fmrc/us_east/US_East_Forecast_Model_Run_Collection_best.ncd
12:12:08 WARNING: Cannot get cube for: http://omgsrv1.meas.ncsu.edu:8080/thredds/dodsC/fmrc/us_east/US_East_Forecast_Model_Run_Collection_best.ncd
istart must be different from istop! Got istart 0 and  istop 0
12:12:08 INFO: 
[Reading url 11/11]: http://crow.marine.usf.edu:8080/thredds/dodsC/WFS_SWAN_NF_model/USF_Ocean_Circulation_Group_West_Florida_Shelf_Daily_SWAN_Nowcast_Forecast_Wave_Model_Data_best.ncd
12:12:09 WARNING: Cannot get cube for: http://crow.marine.usf.edu:8080/thredds/dodsC/WFS_SWAN_NF_model/USF_Ocean_Circulation_Group_West_Florida_Shelf_Daily_SWAN_Nowcast_Forecast_Wave_Model_Data_best.ncd
Cube does not contain ['sea_water_salinity', 'sea_surface_salinity', 'sea_water_absolute_salinity', 'sea_water_practical_salinity']
12:12:09 INFO: **** Downloading to file 2014-07-07/2014-07-07-USF_ROMS.nc *****
12:12:09 INFO: [No Data] Mayport (Bar Pilots Dock), FL
12:12:09 INFO: [No Data] I-295 Bridge, St Johns River, FL
12:12:09 INFO: [No Data] Tolomato River station
12:12:10 INFO: [Water  ] Shell Point station
12:12:10 INFO: [No Data] Cherry Grove Pier, N. Myrtle Beach, SC
12:12:12 INFO: [Water  ] Gulf of Mexico station
12:12:16 INFO: [Water  ] Shell Point
12:12:16 INFO: [No Data] St Lucie Inlet station
12:12:18 INFO: [Water  ] Redfish Pass station
12:12:18 INFO: [No Data] fau_lobo_1
12:12:18 INFO: [No Data] CORMP ILM3, Wrightsville Beach Offshore, NC
12:12:18 INFO: [No Data] Fort Myers station
12:12:18 INFO: [No Data] CAROCOOPS SUN2, Sunset Nearshore, NC
12:12:18 INFO: [No Data] CORMP ILM2, Wrightsville Beach Nearshore, NC
12:12:18 INFO: [No Data] Bing&#39;s Landing station
12:12:20 INFO: [Water  ] Tarpon Bay station
12:12:20 INFO: [No Data] Apache Pier, Myrtle Beach, SC
12:12:40 INFO: Finished processing [USF_ROMS]: http://crow.marine.usf.edu:8080/thredds/dodsC/WFS_SWAN_NF_model/USF_Ocean_Circulation_Group_West_Florida_Shelf_Daily_SWAN_Nowcast_Forecast_Wave_Model_Data_best.ncd

12:12:40 INFO: **** Downloading to file 2014-07-07/2014-07-07-COAWST_4.nc *****
12:12:46 INFO: [Land   ] Mayport (Bar Pilots Dock), FL
12:12:51 INFO: [Land   ] I-295 Bridge, St Johns River, FL
12:12:56 INFO: [Land   ] Tolomato River station
12:13:08 INFO: [Land   ] Shell Point station
12:13:14 INFO: [Land   ] Cherry Grove Pier, N. Myrtle Beach, SC
12:13:26 INFO: [Water  ] Gulf of Mexico station
12:13:32 INFO: [Land   ] Shell Point
12:13:44 INFO: [Water  ] St Lucie Inlet station
12:13:56 INFO: [Water  ] Redfish Pass station
12:14:02 INFO: [Land   ] fau_lobo_1
12:14:08 INFO: [Water  ] CORMP ILM3, Wrightsville Beach Offshore, NC
12:14:14 INFO: [Land   ] Fort Myers station
12:14:20 INFO: [Water  ] CAROCOOPS SUN2, Sunset Nearshore, NC
12:14:31 INFO: [Water  ] CORMP ILM2, Wrightsville Beach Nearshore, NC
12:14:37 INFO: [Land   ] Bing&#39;s Landing station
12:14:43 INFO: [Water  ] Tarpon Bay station
12:14:49 INFO: [Land   ] Apache Pier, Myrtle Beach, SC
12:18:43 INFO: Finished processing [COAWST_4]: http://crow.marine.usf.edu:8080/thredds/dodsC/WFS_SWAN_NF_model/USF_Ocean_Circulation_Group_West_Florida_Shelf_Daily_SWAN_Nowcast_Forecast_Wave_Model_Data_best.ncd

12:18:43 INFO: **** Downloading to file 2014-07-07/2014-07-07-ESPRESSO.nc *****
12:18:43 INFO: [No Data] Mayport (Bar Pilots Dock), FL
12:18:43 INFO: [No Data] I-295 Bridge, St Johns River, FL
12:18:43 INFO: [No Data] Tolomato River station
12:18:43 INFO: [No Data] Shell Point station
12:18:43 INFO: [No Data] Cherry Grove Pier, N. Myrtle Beach, SC
12:18:43 INFO: [No Data] Gulf of Mexico station
12:18:43 INFO: [No Data] Shell Point
12:18:43 INFO: [No Data] St Lucie Inlet station
12:18:43 INFO: [No Data] Redfish Pass station
12:18:43 INFO: [No Data] fau_lobo_1
12:18:43 INFO: [No Data] CORMP ILM3, Wrightsville Beach Offshore, NC
12:18:43 INFO: [No Data] Fort Myers station
12:18:43 INFO: [No Data] CAROCOOPS SUN2, Sunset Nearshore, NC
12:18:43 INFO: [No Data] CORMP ILM2, Wrightsville Beach Nearshore, NC
12:18:43 INFO: [No Data] Bing&#39;s Landing station
12:18:43 INFO: [No Data] Tarpon Bay station
12:18:43 INFO: [No Data] Apache Pier, Myrtle Beach, SC
12:18:43 INFO: Finished processing [ESPRESSO]: http://crow.marine.usf.edu:8080/thredds/dodsC/WFS_SWAN_NF_model/USF_Ocean_Circulation_Group_West_Florida_Shelf_Daily_SWAN_Nowcast_Forecast_Wave_Model_Data_best.ncd

12:18:43 INFO: ****** Downloading to file 2014-07-07/2014-07-07-HYCOM.nc ******
12:18:46 INFO: [Land   ] Mayport (Bar Pilots Dock), FL
12:18:48 INFO: [Land   ] I-295 Bridge, St Johns River, FL
12:18:51 INFO: [Land   ] Tolomato River station
12:18:53 INFO: [Land   ] Shell Point station
12:18:56 INFO: [Land   ] Cherry Grove Pier, N. Myrtle Beach, SC
12:18:59 INFO: [Land   ] Gulf of Mexico station
12:19:01 INFO: [Land   ] Shell Point
12:19:03 INFO: [Land   ] St Lucie Inlet station
12:19:06 INFO: [Land   ] Redfish Pass station
12:19:08 INFO: [Land   ] fau_lobo_1
12:19:10 INFO: [Water  ] CORMP ILM3, Wrightsville Beach Offshore, NC
12:19:10 INFO: [No Data] Fort Myers station
12:19:13 INFO: [Water  ] CAROCOOPS SUN2, Sunset Nearshore, NC
12:19:13 INFO: [No Data] CORMP ILM2, Wrightsville Beach Nearshore, NC
12:19:15 INFO: [Land   ] Bing&#39;s Landing station
12:19:17 INFO: [Land   ] Tarpon Bay station
12:19:20 INFO: [Land   ] Apache Pier, Myrtle Beach, SC
12:19:20 INFO: Finished processing [HYCOM]: http://crow.marine.usf.edu:8080/thredds/dodsC/WFS_SWAN_NF_model/USF_Ocean_Circulation_Group_West_Florida_Shelf_Daily_SWAN_Nowcast_Forecast_Wave_Model_Data_best.ncd

12:19:20 WARNING: /home/filipe/miniconda/envs/SECOORA/lib/python2.7/site-packages/numpy/core/_methods.py:59: RuntimeWarning: Mean of empty slice.
  warnings.warn("Mean of empty slice.", RuntimeWarning)

12:19:29 INFO: 18.98 minutes
12:19:29 INFO: EOF
