01:26:01 INFO: ************Saving data inside directory 2014-07-07*************
01:26:01 INFO: *********************** Run information ************************
01:26:01 INFO: Run date: 2015-08-08 04:26:01
01:26:01 INFO: Download start: 2014-07-01 12:00:00
01:26:01 INFO: Download stop: 2014-07-07 12:00:00
01:26:01 INFO: Bounding box: -87.40, 24.25,-74.70, 36.70
01:26:01 INFO: *********************** Software version ***********************
01:26:01 INFO: Iris version: 1.8.1
01:26:01 INFO: owslib version: 0.9.0
01:26:01 INFO: pyoos version: 0.6.2
01:26:05 INFO: ********************* Catalog information **********************
01:26:05 INFO: URL: http://www.ngdc.noaa.gov/geoportal/csw
01:26:05 INFO: CSW version: 2.0.2
01:26:05 INFO: Number of datasets available: 28
01:26:05 INFO: ***************************** CSW ******************************
01:26:05 INFO: USF FVCOM - Nowcast Aggregation
01:26:05 INFO: ROMS/TOMS 3.0 - New Floria Shelf Application
01:26:05 INFO: ROMS/TOMS 3.0 - South-Atlantic Bight and Gulf of Mexico
01:26:05 INFO: COAWST Forecast System : USGS : US East Coast and Gulf of Mexico (Experimental)
01:26:05 INFO: ROMS ESPRESSO Real-Time Operational IS4DVAR Forecast System Version 2 (NEW) 2013-present FMRC History (Best)
01:26:05 INFO: HYbrid Coordinate Ocean Model (HYCOM): Global
01:26:05 INFO: National Data Buoy Center SOS
01:26:05 INFO: Aquarius Level 3 Sea Surface Salinity Standard Mapped Image Daily Data V3.0
01:26:05 INFO: Aquarius Level 3 Sea Surface Salinity Standard Mapped Image Monthly Data V3.0
01:26:05 INFO: Aquarius Level 3 Sea Surface Salinity Standard Mapped Image Weekly Data V3.0
01:26:05 INFO: fau.lobo.1
01:26:05 INFO: fldep.bingslanding.
01:26:05 INFO: fldep.stlucieinlet.
01:26:05 INFO: fldep.tolomatoriver.
01:26:05 INFO: lbhmc.2ndave.pier
01:26:05 INFO: lbhmc.apachepier.pier
01:26:05 INFO: lbhmc.cherrygrove.pier
01:26:05 INFO: carocoops.cap2.buoy
01:26:05 INFO: carocoops.cap2.buoy
01:26:05 INFO: carocoops.frp2.buoy
01:26:05 INFO: carocoops.frp2.buoy
01:26:05 INFO: carocoops.sun2.buoy
01:26:05 INFO: sccf.fortmyers.wq
01:26:05 INFO: sccf.gulfofmexico.wq
01:26:05 INFO: sccf.redfishpass.wq
01:26:05 INFO: sccf.shellpoint.wq
01:26:05 INFO: sccf.tarponbay.wq
01:26:05 INFO: usf.shp.ngwlms
01:26:05 INFO: ***************************** SOS ******************************
01:26:05 INFO: http://sdf.ndbc.noaa.gov/sos/server.php?service=SOS&request=GetCapabilities&acceptVersions=1.0.0
01:26:05 INFO: http://tds.secoora.org/thredds/sos/carocoops.cap2.buoy.nc?service=SOS&version=1.0.0&request=GetCapabilities
01:26:05 INFO: http://tds.secoora.org/thredds/sos/carocoops.cap2.buoy_archive.nc?service=SOS&version=1.0.0&request=GetCapabilities
01:26:05 INFO: http://tds.secoora.org/thredds/sos/carocoops.frp2.buoy.nc?service=SOS&version=1.0.0&request=GetCapabilities
01:26:05 INFO: http://tds.secoora.org/thredds/sos/carocoops.frp2.buoy_archive.nc?service=SOS&version=1.0.0&request=GetCapabilities
01:26:05 INFO: http://tds.secoora.org/thredds/sos/carocoops.sun2.buoy_archive.nc?service=SOS&version=1.0.0&request=GetCapabilities
01:26:05 INFO: http://tds.secoora.org/thredds/sos/fau.lobo.1.nc?service=SOS&version=1.0.0&request=GetCapabilities
01:26:05 INFO: http://tds.secoora.org/thredds/sos/fldep.bingslanding..nc?service=SOS&version=1.0.0&request=GetCapabilities
01:26:05 INFO: http://tds.secoora.org/thredds/sos/fldep.stlucieinlet..nc?service=SOS&version=1.0.0&request=GetCapabilities
01:26:05 INFO: http://tds.secoora.org/thredds/sos/fldep.tolomatoriver..nc?service=SOS&version=1.0.0&request=GetCapabilities
01:26:05 INFO: http://tds.secoora.org/thredds/sos/lbhmc.2ndave.pier.nc?service=SOS&version=1.0.0&request=GetCapabilities
01:26:05 INFO: http://tds.secoora.org/thredds/sos/lbhmc.apachepier.pier.nc?service=SOS&version=1.0.0&request=GetCapabilities
01:26:05 INFO: http://tds.secoora.org/thredds/sos/lbhmc.cherrygrove.pier.nc?service=SOS&version=1.0.0&request=GetCapabilities
01:26:05 INFO: http://tds.secoora.org/thredds/sos/sccf.fortmyers.wq.nc?service=SOS&version=1.0.0&request=GetCapabilities
01:26:05 INFO: http://tds.secoora.org/thredds/sos/sccf.gulfofmexico.wq.nc?service=SOS&version=1.0.0&request=GetCapabilities
01:26:05 INFO: http://tds.secoora.org/thredds/sos/sccf.redfishpass.wq.nc?service=SOS&version=1.0.0&request=GetCapabilities
01:26:05 INFO: http://tds.secoora.org/thredds/sos/sccf.shellpoint.wq.nc?service=SOS&version=1.0.0&request=GetCapabilities
01:26:05 INFO: http://tds.secoora.org/thredds/sos/sccf.tarponbay.wq.nc?service=SOS&version=1.0.0&request=GetCapabilities
01:26:05 INFO: http://tds.secoora.org/thredds/sos/usf.shp.ngwlms.nc?service=SOS&version=1.0.0&request=GetCapabilities
01:26:05 INFO: ***************************** DAP ******************************
01:26:05 INFO: http://crow.marine.usf.edu:8080/thredds/dodsC/FVCOM-Nowcast-Agg.nc.html
01:26:05 INFO: http://crow.marine.usf.edu:8080/thredds/dodsC/WFS_ROMS_NF_model/USF_Ocean_Circulation_Group_West_Florida_Shelf_Daily_ROMS_Nowcast_Forecast_Model_Data_best.ncd.html
01:26:05 INFO: http://geoport.whoi.edu/thredds/dodsC/coawst_4/use/fmrc/coawst_4_use_best.ncd.html
01:26:05 INFO: http://omgsrv1.meas.ncsu.edu:8080/thredds/dodsC/fmrc/sabgom/SABGOM_Forecast_Model_Run_Collection_best.ncd.html
01:26:05 INFO: http://oos.soest.hawaii.edu/thredds/dodsC/pacioos/hycom/global.html
01:26:05 INFO: http://tds.marine.rutgers.edu/thredds/dodsC/roms/espresso/2013_da/his_Best/ESPRESSO_Real-Time_v2_History_Best_Available_best.ncd.html
01:26:05 INFO: http://tds.secoora.org/thredds/dodsC/carocoops.cap2.buoy.nc.html
01:26:05 INFO: http://tds.secoora.org/thredds/dodsC/carocoops.cap2.buoy_archive.nc.html
01:26:05 INFO: http://tds.secoora.org/thredds/dodsC/carocoops.frp2.buoy.nc.html
01:26:05 INFO: http://tds.secoora.org/thredds/dodsC/carocoops.frp2.buoy_archive.nc.html
01:26:05 INFO: http://tds.secoora.org/thredds/dodsC/carocoops.sun2.buoy_archive.nc.html
01:26:05 INFO: http://tds.secoora.org/thredds/dodsC/fau.lobo.1.nc.html
01:26:05 INFO: http://tds.secoora.org/thredds/dodsC/fldep.bingslanding..nc.html
01:26:05 INFO: http://tds.secoora.org/thredds/dodsC/fldep.stlucieinlet..nc.html
01:26:05 INFO: http://tds.secoora.org/thredds/dodsC/fldep.tolomatoriver..nc.html
01:26:05 INFO: http://tds.secoora.org/thredds/dodsC/lbhmc.2ndave.pier.nc.html
01:26:05 INFO: http://tds.secoora.org/thredds/dodsC/lbhmc.apachepier.pier.nc.html
01:26:05 INFO: http://tds.secoora.org/thredds/dodsC/lbhmc.cherrygrove.pier.nc.html
01:26:05 INFO: http://tds.secoora.org/thredds/dodsC/sccf.fortmyers.wq.nc.html
01:26:05 INFO: http://tds.secoora.org/thredds/dodsC/sccf.gulfofmexico.wq.nc.html
01:26:05 INFO: http://tds.secoora.org/thredds/dodsC/sccf.redfishpass.wq.nc.html
01:26:05 INFO: http://tds.secoora.org/thredds/dodsC/sccf.shellpoint.wq.nc.html
01:26:05 INFO: http://tds.secoora.org/thredds/dodsC/sccf.tarponbay.wq.nc.html
01:26:05 INFO: http://tds.secoora.org/thredds/dodsC/usf.shp.ngwlms.nc.html
01:26:05 INFO: http://thredds.axiomdatascience.com/thredds/dodsC/Aquarius_V3_SSS_Daily.nc.html
01:26:05 INFO: http://thredds.axiomdatascience.com/thredds/dodsC/Aquarius_V3_SSS_Monthly.nc.html
01:26:05 INFO: http://thredds.axiomdatascience.com/thredds/dodsC/Aquarius_V3_SSS_Weekly.nc.html
01:27:36 INFO: ************************* Filtered DAP *************************
01:27:36 INFO: http://crow.marine.usf.edu:8080/thredds/dodsC/FVCOM-Nowcast-Agg.nc.html
01:27:36 INFO: http://crow.marine.usf.edu:8080/thredds/dodsC/WFS_ROMS_NF_model/USF_Ocean_Circulation_Group_West_Florida_Shelf_Daily_ROMS_Nowcast_Forecast_Model_Data_best.ncd.html
01:27:36 INFO: http://geoport.whoi.edu/thredds/dodsC/coawst_4/use/fmrc/coawst_4_use_best.ncd.html
01:27:36 INFO: http://omgsrv1.meas.ncsu.edu:8080/thredds/dodsC/fmrc/sabgom/SABGOM_Forecast_Model_Run_Collection_best.ncd.html
01:27:36 INFO: http://oos.soest.hawaii.edu/thredds/dodsC/pacioos/hycom/global.html
01:27:36 INFO: http://tds.marine.rutgers.edu/thredds/dodsC/roms/espresso/2013_da/his_Best/ESPRESSO_Real-Time_v2_History_Best_Available_best.ncd.html
01:27:36 INFO: http://thredds.axiomdatascience.com/thredds/dodsC/Aquarius_V3_SSS_Daily.nc.html
01:27:36 INFO: http://thredds.axiomdatascience.com/thredds/dodsC/Aquarius_V3_SSS_Monthly.nc.html
01:27:36 INFO: http://thredds.axiomdatascience.com/thredds/dodsC/Aquarius_V3_SSS_Weekly.nc.html
01:27:36 WARNING: USEAST not in the NGDC csw
01:27:36 WARNING: USF_SWAN not in the NGDC csw
01:27:45 WARNING: Cannot get cube for: http://129.252.139.124/thredds/dodsC/fit.sispnj.met.nc
Cannot find ['sea_water_salinity', 'sea_surface_salinity', 'sea_water_absolute_salinity', 'sea_water_practical_salinity'] in http://129.252.139.124/thredds/dodsC/fit.sispnj.met.nc.
01:27:56 WARNING: Cannot get cube for: http://129.252.139.124/thredds/dodsC/usf.nfb.ngwlms.nc
Cannot find ['sea_water_salinity', 'sea_surface_salinity', 'sea_water_absolute_salinity', 'sea_water_practical_salinity'] in http://129.252.139.124/thredds/dodsC/usf.nfb.ngwlms.nc.
01:28:05 WARNING: Cannot get cube for: http://129.252.139.124/thredds/dodsC/usf.tas.ngwlms.nc
Cannot find ['sea_water_salinity', 'sea_surface_salinity', 'sea_water_absolute_salinity', 'sea_water_practical_salinity'] in http://129.252.139.124/thredds/dodsC/usf.tas.ngwlms.nc.
01:28:14 WARNING: Cannot get cube for: http://129.252.139.124/thredds/dodsC/usf.apk.ngwlms.nc
Cannot find ['sea_water_salinity', 'sea_surface_salinity', 'sea_water_absolute_salinity', 'sea_water_practical_salinity'] in http://129.252.139.124/thredds/dodsC/usf.apk.ngwlms.nc.
01:28:20 WARNING: Cannot get cube for: http://129.252.139.124/thredds/dodsC/usf.c21.weatherpak.nc
Cannot find ['sea_water_salinity', 'sea_surface_salinity', 'sea_water_absolute_salinity', 'sea_water_practical_salinity'] in http://129.252.139.124/thredds/dodsC/usf.c21.weatherpak.nc.
01:28:34 WARNING: Cannot get cube for: http://129.252.139.124/thredds/dodsC/usf.bcp.ngwlms.nc
Cannot find ['sea_water_salinity', 'sea_surface_salinity', 'sea_water_absolute_salinity', 'sea_water_practical_salinity'] in http://129.252.139.124/thredds/dodsC/usf.bcp.ngwlms.nc.
01:28:49 WARNING: Cannot get cube for: http://129.252.139.124/thredds/dodsC/usf.fhp.ngwlms.nc
Cannot find ['sea_water_salinity', 'sea_surface_salinity', 'sea_water_absolute_salinity', 'sea_water_practical_salinity'] in http://129.252.139.124/thredds/dodsC/usf.fhp.ngwlms.nc.
01:28:53 WARNING: Cannot get cube for: http://129.252.139.124/thredds/dodsC/usf.c10.mcat.nc
istart must be different from istop! Got istart 48233 and  istop 48233
01:29:06 WARNING: Cannot get cube for: http://129.252.139.124/thredds/dodsC/c10_salinity_water_temp.nc
'Expected to find exactly 1  coordinate, but found none.'
01:29:15 WARNING: Cannot get cube for: http://129.252.139.124/thredds/dodsC/QC_C10_Temp_full.nc
Cannot find ['sea_water_salinity', 'sea_surface_salinity', 'sea_water_absolute_salinity', 'sea_water_practical_salinity'] in http://129.252.139.124/thredds/dodsC/QC_C10_Temp_full.nc.
01:29:24 WARNING: Cannot get cube for: http://129.252.139.124/thredds/dodsC/QC_C10_Sal_full.nc
'Expected to find exactly 1  coordinate, but found none.'
01:29:27 WARNING: Cannot get cube for: http://129.252.139.124/thredds/dodsC/usf.c12.mcat.nc
istart must be different from istop! Got istart 18711 and  istop 18711
01:29:31 WARNING: Cannot get cube for: http://129.252.139.124/thredds/dodsC/usf.c13.mcat.nc
istart must be different from istop! Got istart 18099 and  istop 18099
01:29:35 WARNING: Cannot get cube for: http://129.252.139.124/thredds/dodsC/usf.c10.mcat_2011.nc
istart must be different from istop! Got istart 26303 and  istop 26303
01:29:40 WARNING: Cannot get cube for: http://129.252.139.124/thredds/dodsC/usf.c12.mcat_2011.nc
istart must be different from istop! Got istart 26303 and  istop 26303
01:29:45 WARNING: Cannot get cube for: http://129.252.139.124/thredds/dodsC/usf.c13.mcat_2011.nc
istart must be different from istop! Got istart 26303 and  istop 26303
01:30:27 WARNING: Cannot get cube for: http://129.252.139.124/thredds/dodsC/cormp.ilm1.buoy.nc
istart must be different from istop! Got istart 1443 and  istop 1443
01:30:36 WARNING: Cannot get cube for: http://129.252.139.124/thredds/dodsC/cormp.lej3.buoy.nc
istart must be different from istop! Got istart 91490 and  istop 91490
01:31:13 WARNING: Cannot get cube for: http://129.252.139.124/thredds/dodsC/fldep.poncedeleonsouth..nc
Cannot find ['sea_water_salinity', 'sea_surface_salinity', 'sea_water_absolute_salinity', 'sea_water_practical_salinity'] in http://129.252.139.124/thredds/dodsC/fldep.poncedeleonsouth..nc.
01:31:24 WARNING: Cannot get cube for: http://129.252.139.124/thredds/dodsC/fldep.redbaypoint..nc
Cannot find ['sea_water_salinity', 'sea_surface_salinity', 'sea_water_absolute_salinity', 'sea_water_practical_salinity'] in http://129.252.139.124/thredds/dodsC/fldep.redbaypoint..nc.
01:31:46 WARNING: Cannot get cube for: http://129.252.139.124/thredds/dodsC/fldep.naplesbay..nc
Cannot find ['sea_water_salinity', 'sea_surface_salinity', 'sea_water_absolute_salinity', 'sea_water_practical_salinity'] in http://129.252.139.124/thredds/dodsC/fldep.naplesbay..nc.
01:31:55 WARNING: Cannot get cube for: http://129.252.139.124/thredds/dodsC/fldep.gordonriverinlet..nc
Cannot find ['sea_water_salinity', 'sea_surface_salinity', 'sea_water_absolute_salinity', 'sea_water_practical_salinity'] in http://129.252.139.124/thredds/dodsC/fldep.gordonriverinlet..nc.
01:32:06 WARNING: Cannot get cube for: http://129.252.139.124/thredds/dodsC/fldep.melbourne..nc
Cannot find ['sea_water_salinity', 'sea_surface_salinity', 'sea_water_absolute_salinity', 'sea_water_practical_salinity'] in http://129.252.139.124/thredds/dodsC/fldep.melbourne..nc.
01:32:20 WARNING: Cannot get cube for: http://129.252.139.124/thredds/dodsC/fldep.binneydock..nc
Cannot find ['sea_water_salinity', 'sea_surface_salinity', 'sea_water_absolute_salinity', 'sea_water_practical_salinity'] in http://129.252.139.124/thredds/dodsC/fldep.binneydock..nc.
01:32:35 WARNING: Cannot get cube for: http://129.252.139.124/thredds/dodsC/fldep.verobeach..nc
Cannot find ['sea_water_salinity', 'sea_surface_salinity', 'sea_water_absolute_salinity', 'sea_water_practical_salinity'] in http://129.252.139.124/thredds/dodsC/fldep.verobeach..nc.
01:33:15 WARNING: Cannot get cube for: http://129.252.139.124/thredds/dodsC/enp.wiwf1.met.nc
Cannot find ['sea_water_salinity', 'sea_surface_salinity', 'sea_water_absolute_salinity', 'sea_water_practical_salinity'] in http://129.252.139.124/thredds/dodsC/enp.wiwf1.met.nc.
01:33:20 WARNING: Cannot get cube for: http://129.252.139.124/thredds/dodsC/enp.lbrf1.met.nc
Cannot find ['sea_water_salinity', 'sea_surface_salinity', 'sea_water_absolute_salinity', 'sea_water_practical_salinity'] in http://129.252.139.124/thredds/dodsC/enp.lbrf1.met.nc.
01:33:26 WARNING: Cannot get cube for: http://129.252.139.124/thredds/dodsC/enp.bobf1.met.nc
Cannot find ['sea_water_salinity', 'sea_surface_salinity', 'sea_water_absolute_salinity', 'sea_water_practical_salinity'] in http://129.252.139.124/thredds/dodsC/enp.bobf1.met.nc.
01:33:32 WARNING: Cannot get cube for: http://129.252.139.124/thredds/dodsC/enp.trrf1.met.nc
Cannot find ['sea_water_salinity', 'sea_surface_salinity', 'sea_water_absolute_salinity', 'sea_water_practical_salinity'] in http://129.252.139.124/thredds/dodsC/enp.trrf1.met.nc.
01:33:38 WARNING: Cannot get cube for: http://129.252.139.124/thredds/dodsC/enp.wwef1.met.nc
Cannot find ['sea_water_salinity', 'sea_surface_salinity', 'sea_water_absolute_salinity', 'sea_water_practical_salinity'] in http://129.252.139.124/thredds/dodsC/enp.wwef1.met.nc.
01:33:44 WARNING: Cannot get cube for: http://129.252.139.124/thredds/dodsC/enp.lrif1.met.nc
Cannot find ['sea_water_salinity', 'sea_surface_salinity', 'sea_water_absolute_salinity', 'sea_water_practical_salinity'] in http://129.252.139.124/thredds/dodsC/enp.lrif1.met.nc.
01:33:49 WARNING: Cannot get cube for: http://129.252.139.124/thredds/dodsC/enp.bwsf1.met.nc
Cannot find ['sea_water_salinity', 'sea_surface_salinity', 'sea_water_absolute_salinity', 'sea_water_practical_salinity'] in http://129.252.139.124/thredds/dodsC/enp.bwsf1.met.nc.
01:33:54 WARNING: Cannot get cube for: http://129.252.139.124/thredds/dodsC/enp.pkyf1.met.nc
Cannot find ['sea_water_salinity', 'sea_surface_salinity', 'sea_water_absolute_salinity', 'sea_water_practical_salinity'] in http://129.252.139.124/thredds/dodsC/enp.pkyf1.met.nc.
01:34:00 WARNING: Cannot get cube for: http://129.252.139.124/thredds/dodsC/enp.lmdf1.met.nc
Cannot find ['sea_water_salinity', 'sea_surface_salinity', 'sea_water_absolute_salinity', 'sea_water_practical_salinity'] in http://129.252.139.124/thredds/dodsC/enp.lmdf1.met.nc.
01:34:06 WARNING: Cannot get cube for: http://129.252.139.124/thredds/dodsC/enp.cnbf1.met.nc
Cannot find ['sea_water_salinity', 'sea_surface_salinity', 'sea_water_absolute_salinity', 'sea_water_practical_salinity'] in http://129.252.139.124/thredds/dodsC/enp.cnbf1.met.nc.
01:34:13 WARNING: Cannot get cube for: http://129.252.139.124/thredds/dodsC/enp.hcef1.met.nc
Cannot find ['sea_water_salinity', 'sea_surface_salinity', 'sea_water_absolute_salinity', 'sea_water_practical_salinity'] in http://129.252.139.124/thredds/dodsC/enp.hcef1.met.nc.
01:34:21 WARNING: Cannot get cube for: http://129.252.139.124/thredds/dodsC/enp.jkyf1.met.nc
Cannot find ['sea_water_salinity', 'sea_surface_salinity', 'sea_water_absolute_salinity', 'sea_water_practical_salinity'] in http://129.252.139.124/thredds/dodsC/enp.jkyf1.met.nc.
01:34:27 WARNING: Cannot get cube for: http://129.252.139.124/thredds/dodsC/enp.wrbf1.met.nc
Cannot find ['sea_water_salinity', 'sea_surface_salinity', 'sea_water_absolute_salinity', 'sea_water_practical_salinity'] in http://129.252.139.124/thredds/dodsC/enp.wrbf1.met.nc.
01:34:32 WARNING: Cannot get cube for: http://129.252.139.124/thredds/dodsC/enp.gbif1.met.nc
Cannot find ['sea_water_salinity', 'sea_surface_salinity', 'sea_water_absolute_salinity', 'sea_water_practical_salinity'] in http://129.252.139.124/thredds/dodsC/enp.gbif1.met.nc.
01:34:39 WARNING: Cannot get cube for: http://129.252.139.124/thredds/dodsC/enp.ppta1.met.nc
Cannot find ['sea_water_salinity', 'sea_surface_salinity', 'sea_water_absolute_salinity', 'sea_water_practical_salinity'] in http://129.252.139.124/thredds/dodsC/enp.ppta1.met.nc.
01:34:45 WARNING: Cannot get cube for: http://129.252.139.124/thredds/dodsC/enp.bdvf1.met.nc
Cannot find ['sea_water_salinity', 'sea_surface_salinity', 'sea_water_absolute_salinity', 'sea_water_practical_salinity'] in http://129.252.139.124/thredds/dodsC/enp.bdvf1.met.nc.
01:34:50 WARNING: Cannot get cube for: http://129.252.139.124/thredds/dodsC/enp.lrkf1.met.nc
Cannot find ['sea_water_salinity', 'sea_surface_salinity', 'sea_water_absolute_salinity', 'sea_water_practical_salinity'] in http://129.252.139.124/thredds/dodsC/enp.lrkf1.met.nc.
01:34:56 WARNING: Cannot get cube for: http://129.252.139.124/thredds/dodsC/enp.bnkf1.met.nc
Cannot find ['sea_water_salinity', 'sea_surface_salinity', 'sea_water_absolute_salinity', 'sea_water_practical_salinity'] in http://129.252.139.124/thredds/dodsC/enp.bnkf1.met.nc.
01:35:01 WARNING: Cannot get cube for: http://129.252.139.124/thredds/dodsC/enp.gbtf1.met.nc
Cannot find ['sea_water_salinity', 'sea_surface_salinity', 'sea_water_absolute_salinity', 'sea_water_practical_salinity'] in http://129.252.139.124/thredds/dodsC/enp.gbtf1.met.nc.
01:35:08 WARNING: Cannot get cube for: http://129.252.139.124/thredds/dodsC/enp.tcvf1.met.nc
Cannot find ['sea_water_salinity', 'sea_surface_salinity', 'sea_water_absolute_salinity', 'sea_water_practical_salinity'] in http://129.252.139.124/thredds/dodsC/enp.tcvf1.met.nc.
01:35:13 WARNING: Cannot get cube for: http://129.252.139.124/thredds/dodsC/enp.canf1.met.nc
Cannot find ['sea_water_salinity', 'sea_surface_salinity', 'sea_water_absolute_salinity', 'sea_water_practical_salinity'] in http://129.252.139.124/thredds/dodsC/enp.canf1.met.nc.
01:35:19 WARNING: Cannot get cube for: http://129.252.139.124/thredds/dodsC/enp.lbsf1.met.nc
Cannot find ['sea_water_salinity', 'sea_surface_salinity', 'sea_water_absolute_salinity', 'sea_water_practical_salinity'] in http://129.252.139.124/thredds/dodsC/enp.lbsf1.met.nc.
01:35:25 WARNING: Cannot get cube for: http://129.252.139.124/thredds/dodsC/enp.mukf1.met.nc
Cannot find ['sea_water_salinity', 'sea_surface_salinity', 'sea_water_absolute_salinity', 'sea_water_practical_salinity'] in http://129.252.139.124/thredds/dodsC/enp.mukf1.met.nc.
01:35:31 WARNING: Cannot get cube for: http://129.252.139.124/thredds/dodsC/enp.dkkf1.met.nc
Cannot find ['sea_water_salinity', 'sea_surface_salinity', 'sea_water_absolute_salinity', 'sea_water_practical_salinity'] in http://129.252.139.124/thredds/dodsC/enp.dkkf1.met.nc.
01:35:36 WARNING: Cannot get cube for: http://129.252.139.124/thredds/dodsC/enp.cwaf1.met.nc
Cannot find ['sea_water_salinity', 'sea_surface_salinity', 'sea_water_absolute_salinity', 'sea_water_practical_salinity'] in http://129.252.139.124/thredds/dodsC/enp.cwaf1.met.nc.
01:35:48 INFO: ********************* Collector offerings **********************
01:35:48 INFO: NOAA.NOS.CO-OPS SOS: 1048 offerings
01:35:50 INFO: SOS URL request: http://opendap.co-ops.nos.noaa.gov/ioos-dif-sos/SOS?eventTime=2014-07-01T12%3A00%3A00Z&service=SOS&offering=urn%3Aioos%3Anetwork%3ANOAA.NOS.CO-OPS%3AMetActive&request=GetObservation&version=1.0.0&responseFormat=text%2Fcsv&featureOfInterest=BBOX%3A-87.4%2C24.25%2C-74.7%2C36.7&observedProperty=salinity
01:37:41 INFO: ************************* Observations *************************
01:37:41 INFO: **** Downloading to file 2014-07-07/2014-07-07-OBS_DATA.nc *****
01:37:48 WARNING: /home/filipe/miniconda/envs/SECOORA/lib/python2.7/site-packages/iris/fileformats/netcdf.py:1783: UserWarning: NetCDF default saving behaviour currently assigns the outermost dimensions to unlimited. This behaviour is to be deprecated, in favour of no automatic assignment. To switch to the new behaviour, set iris.FUTURE.netcdf_no_unlimited to True.
  warnings.warn(msg)

01:37:48 INFO: ********************* SECOORA Observations *********************
01:37:48 INFO:  Downloading to file 2014-07-07/2014-07-07-SECOORA_OBS_DATA.nc *
01:37:48 INFO: **************************** Models ****************************
01:37:48 INFO: 
[Reading url 1/11]: http://crow.marine.usf.edu:8080/thredds/dodsC/FVCOM-Nowcast-Agg.nc
01:42:48 WARNING: Cannot get cube for: http://crow.marine.usf.edu:8080/thredds/dodsC/FVCOM-Nowcast-Agg.nc
Timed out!
01:42:48 INFO: 
[Reading url 2/11]: http://crow.marine.usf.edu:8080/thredds/dodsC/WFS_ROMS_NF_model/USF_Ocean_Circulation_Group_West_Florida_Shelf_Daily_ROMS_Nowcast_Forecast_Model_Data_best.ncd
01:42:58 INFO: 
[Reading url 3/11]: http://geoport.whoi.edu/thredds/dodsC/coawst_4/use/fmrc/coawst_4_use_best.ncd
01:43:32 INFO: 
[Reading url 4/11]: http://omgarch1.meas.ncsu.edu:8080/thredds/dodsC/fmrc/sabgom/SABGOM_Forecast_Model_Run_Collection_best.ncd
01:48:13 INFO: 
[Reading url 5/11]: http://oos.soest.hawaii.edu/thredds/dodsC/pacioos/hycom/global
01:48:19 INFO: 
[Reading url 6/11]: http://tds.marine.rutgers.edu/thredds/dodsC/roms/espresso/2013_da/his_Best/ESPRESSO_Real-Time_v2_History_Best_Available_best.ncd
01:49:30 INFO: 
[Reading url 7/11]: http://thredds.axiomdatascience.com/thredds/dodsC/Aquarius_V3_SSS_Daily.nc
01:49:37 WARNING: Cannot get cube for: http://thredds.axiomdatascience.com/thredds/dodsC/Aquarius_V3_SSS_Daily.nc
istart must be different from istop! Got istart 992 and  istop 992
01:49:37 INFO: 
[Reading url 8/11]: http://thredds.axiomdatascience.com/thredds/dodsC/Aquarius_V3_SSS_Monthly.nc
01:49:40 WARNING: Cannot get cube for: http://thredds.axiomdatascience.com/thredds/dodsC/Aquarius_V3_SSS_Monthly.nc
istart must be different from istop! Got istart 35 and  istop 35
01:49:40 INFO: 
[Reading url 9/11]: http://thredds.axiomdatascience.com/thredds/dodsC/Aquarius_V3_SSS_Weekly.nc
01:49:47 WARNING: Cannot get cube for: http://thredds.axiomdatascience.com/thredds/dodsC/Aquarius_V3_SSS_Weekly.nc
istart must be different from istop! Got istart 149 and  istop 149
01:49:47 INFO: 
[Reading url 10/11]: http://omgsrv1.meas.ncsu.edu:8080/thredds/dodsC/fmrc/us_east/US_East_Forecast_Model_Run_Collection_best.ncd
01:50:00 WARNING: Cannot get cube for: http://omgsrv1.meas.ncsu.edu:8080/thredds/dodsC/fmrc/us_east/US_East_Forecast_Model_Run_Collection_best.ncd
istart must be different from istop! Got istart 0 and  istop 0
01:50:00 INFO: 
[Reading url 11/11]: http://crow.marine.usf.edu:8080/thredds/dodsC/WFS_SWAN_NF_model/USF_Ocean_Circulation_Group_West_Florida_Shelf_Daily_SWAN_Nowcast_Forecast_Wave_Model_Data_best.ncd
01:50:01 WARNING: Cannot get cube for: http://crow.marine.usf.edu:8080/thredds/dodsC/WFS_SWAN_NF_model/USF_Ocean_Circulation_Group_West_Florida_Shelf_Daily_SWAN_Nowcast_Forecast_Wave_Model_Data_best.ncd
Cannot find ['sea_water_salinity', 'sea_surface_salinity', 'sea_water_absolute_salinity', 'sea_water_practical_salinity'] in http://crow.marine.usf.edu:8080/thredds/dodsC/WFS_SWAN_NF_model/USF_Ocean_Circulation_Group_West_Florida_Shelf_Daily_SWAN_Nowcast_Forecast_Wave_Model_Data_best.ncd.
01:50:02 INFO: **** Downloading to file 2014-07-07/2014-07-07-USF_ROMS.nc *****
01:50:02 INFO: [No Data] I-295 Bridge, St Johns River, FL
01:50:02 INFO: [No Data] Red Bay Point, St Johns River, FL
01:50:02 INFO: [No Data] Tolomato River station
01:50:02 INFO: [No Data] CAROCOOPS CAP2, Capers Island Nearshore, SC
01:50:05 INFO: [Water  ] Shell Point station
01:50:05 INFO: [No Data] Cherry Grove Pier, N. Myrtle Beach, SC
01:50:09 INFO: [Water  ] Gulf of Mexico station
01:50:21 INFO: [Water  ] Shell Point
01:50:21 INFO: [No Data] St Lucie Inlet station
01:50:26 INFO: [Water  ] Redfish Pass station
01:50:26 INFO: [No Data] fau_lobo_1
01:50:26 INFO: [No Data] CORMP ILM3, Wrightsville Beach Offshore, NC
01:50:26 INFO: [No Data] Fort Myers station
01:50:26 INFO: [No Data] CAROCOOPS SUN2, Sunset Nearshore, NC
01:50:26 INFO: [No Data] CORMP ILM2, Wrightsville Beach Nearshore, NC
01:50:26 INFO: [No Data] Bing's Landing station
01:50:26 INFO: [No Data] 2nd Ave North Pier, Myrtle Beach, SC
01:50:30 INFO: [Water  ] Tarpon Bay station
01:50:30 INFO: [No Data] CAROCOOPS FRP2, Fripp Nearshore, SC
01:50:30 INFO: [No Data] Apache Pier, Myrtle Beach, SC
01:50:39 INFO: Finished processing [USF_ROMS]: http://crow.marine.usf.edu:8080/thredds/dodsC/WFS_SWAN_NF_model/USF_Ocean_Circulation_Group_West_Florida_Shelf_Daily_SWAN_Nowcast_Forecast_Wave_Model_Data_best.ncd

01:50:39 INFO: * Downloading to file 2014-07-07/2014-07-07-SABGOM_ARCHIVE.nc **
01:50:42 INFO: [Land   ] I-295 Bridge, St Johns River, FL
01:50:46 INFO: [Land   ] Red Bay Point, St Johns River, FL
01:50:49 INFO: [Land   ] Tolomato River station
01:50:52 INFO: [Water  ] CAROCOOPS CAP2, Capers Island Nearshore, SC
01:50:54 INFO: [Land   ] Shell Point station
01:50:57 INFO: [Land   ] Cherry Grove Pier, N. Myrtle Beach, SC
01:51:02 INFO: [Land   ] Gulf of Mexico station
01:51:05 INFO: [Land   ] Shell Point
01:51:10 INFO: [Water  ] St Lucie Inlet station
01:51:16 INFO: [Water  ] Redfish Pass station
01:51:18 INFO: [Land   ] fau_lobo_1
01:51:24 INFO: [Water  ] CORMP ILM3, Wrightsville Beach Offshore, NC
01:51:26 INFO: [Land   ] Fort Myers station
01:51:32 INFO: [Water  ] CAROCOOPS SUN2, Sunset Nearshore, NC
01:51:34 INFO: [Water  ] CORMP ILM2, Wrightsville Beach Nearshore, NC
01:51:37 INFO: [Land   ] Bing's Landing station
01:51:42 INFO: [Land   ] 2nd Ave North Pier, Myrtle Beach, SC
01:51:45 INFO: [Water  ] Tarpon Bay station
01:51:47 INFO: [Water  ] CAROCOOPS FRP2, Fripp Nearshore, SC
01:51:50 INFO: [Land   ] Apache Pier, Myrtle Beach, SC
01:52:11 INFO: Finished processing [SABGOM_ARCHIVE]: http://crow.marine.usf.edu:8080/thredds/dodsC/WFS_SWAN_NF_model/USF_Ocean_Circulation_Group_West_Florida_Shelf_Daily_SWAN_Nowcast_Forecast_Wave_Model_Data_best.ncd

01:52:11 INFO: **** Downloading to file 2014-07-07/2014-07-07-COAWST_4.nc *****
01:52:25 INFO: [Land   ] I-295 Bridge, St Johns River, FL
01:52:34 INFO: [Land   ] Red Bay Point, St Johns River, FL
01:52:44 INFO: [Land   ] Tolomato River station
01:53:04 INFO: [Water  ] CAROCOOPS CAP2, Capers Island Nearshore, SC
01:53:22 INFO: [Land   ] Shell Point station
01:53:32 INFO: [Land   ] Cherry Grove Pier, N. Myrtle Beach, SC
01:53:51 INFO: [Water  ] Gulf of Mexico station
01:54:01 INFO: [Land   ] Shell Point
01:54:19 INFO: [Water  ] St Lucie Inlet station
01:54:39 INFO: [Water  ] Redfish Pass station
01:54:48 INFO: [Land   ] fau_lobo_1
01:54:57 INFO: [Water  ] CORMP ILM3, Wrightsville Beach Offshore, NC
01:55:06 INFO: [Land   ] Fort Myers station
01:55:16 INFO: [Water  ] CAROCOOPS SUN2, Sunset Nearshore, NC
01:55:35 INFO: [Water  ] CORMP ILM2, Wrightsville Beach Nearshore, NC
01:55:44 INFO: [Land   ] Bing's Landing station
01:56:02 INFO: [Water  ] 2nd Ave North Pier, Myrtle Beach, SC
01:56:12 INFO: [Water  ] Tarpon Bay station
01:56:21 INFO: [Water  ] CAROCOOPS FRP2, Fripp Nearshore, SC
01:56:30 INFO: [Land   ] Apache Pier, Myrtle Beach, SC
01:57:15 INFO: Finished processing [COAWST_4]: http://crow.marine.usf.edu:8080/thredds/dodsC/WFS_SWAN_NF_model/USF_Ocean_Circulation_Group_West_Florida_Shelf_Daily_SWAN_Nowcast_Forecast_Wave_Model_Data_best.ncd

01:57:15 INFO: **** Downloading to file 2014-07-07/2014-07-07-ESPRESSO.nc *****
01:57:15 INFO: [No Data] I-295 Bridge, St Johns River, FL
01:57:15 INFO: [No Data] Red Bay Point, St Johns River, FL
01:57:15 INFO: [No Data] Tolomato River station
01:57:15 INFO: [No Data] CAROCOOPS CAP2, Capers Island Nearshore, SC
01:57:15 INFO: [No Data] Shell Point station
01:57:15 INFO: [No Data] Cherry Grove Pier, N. Myrtle Beach, SC
01:57:15 INFO: [No Data] Gulf of Mexico station
01:57:15 INFO: [No Data] Shell Point
01:57:15 INFO: [No Data] St Lucie Inlet station
01:57:15 INFO: [No Data] Redfish Pass station
01:57:15 INFO: [No Data] fau_lobo_1
01:57:15 INFO: [No Data] CORMP ILM3, Wrightsville Beach Offshore, NC
01:57:15 INFO: [No Data] Fort Myers station
01:57:15 INFO: [No Data] CAROCOOPS SUN2, Sunset Nearshore, NC
01:57:15 INFO: [No Data] CORMP ILM2, Wrightsville Beach Nearshore, NC
01:57:15 INFO: [No Data] Bing's Landing station
01:57:15 INFO: [No Data] 2nd Ave North Pier, Myrtle Beach, SC
01:57:15 INFO: [No Data] Tarpon Bay station
01:57:15 INFO: [No Data] CAROCOOPS FRP2, Fripp Nearshore, SC
01:57:15 INFO: [No Data] Apache Pier, Myrtle Beach, SC
01:57:15 INFO: Finished processing [ESPRESSO]: http://crow.marine.usf.edu:8080/thredds/dodsC/WFS_SWAN_NF_model/USF_Ocean_Circulation_Group_West_Florida_Shelf_Daily_SWAN_Nowcast_Forecast_Wave_Model_Data_best.ncd

01:57:15 INFO: ****** Downloading to file 2014-07-07/2014-07-07-HYCOM.nc ******
01:57:29 INFO: [Land   ] I-295 Bridge, St Johns River, FL
01:57:33 INFO: [Land   ] Red Bay Point, St Johns River, FL
01:57:38 INFO: [Land   ] Tolomato River station
01:57:44 INFO: [Water  ] CAROCOOPS CAP2, Capers Island Nearshore, SC
01:57:47 INFO: [Land   ] Shell Point station
01:57:55 INFO: [Land   ] Cherry Grove Pier, N. Myrtle Beach, SC
01:58:02 INFO: [Land   ] Gulf of Mexico station
01:58:07 INFO: [Land   ] Shell Point
01:58:13 INFO: [Land   ] St Lucie Inlet station
01:58:21 INFO: [Land   ] Redfish Pass station
01:58:27 INFO: [Land   ] fau_lobo_1
01:58:33 INFO: [Water  ] CORMP ILM3, Wrightsville Beach Offshore, NC
01:58:33 INFO: [No Data] Fort Myers station
01:58:46 INFO: [Water  ] CAROCOOPS SUN2, Sunset Nearshore, NC
01:58:46 INFO: [No Data] CORMP ILM2, Wrightsville Beach Nearshore, NC
01:58:55 INFO: [Land   ] Bing's Landing station
01:58:59 INFO: [Land   ] 2nd Ave North Pier, Myrtle Beach, SC
01:59:11 INFO: [Land   ] Tarpon Bay station
01:59:22 INFO: [Water  ] CAROCOOPS FRP2, Fripp Nearshore, SC
01:59:29 INFO: [Land   ] Apache Pier, Myrtle Beach, SC
01:59:29 INFO: Finished processing [HYCOM]: http://crow.marine.usf.edu:8080/thredds/dodsC/WFS_SWAN_NF_model/USF_Ocean_Circulation_Group_West_Florida_Shelf_Daily_SWAN_Nowcast_Forecast_Wave_Model_Data_best.ncd

01:59:29 INFO: 33.50 minutes
01:59:29 INFO: EOF
