05:55:52 INFO: *********************** Run information ************************
05:55:52 INFO: Run date: 2015-02-11 20:55:52
05:55:52 INFO: Download start: 2014-06-30 12:00:00
05:55:52 INFO: Download stop: 2014-07-07 12:00:00
05:55:52 INFO: Bounding box: -87.40, 24.25,-74.70, 36.70
05:55:52 INFO: *********************** Software version ***********************
05:55:52 INFO: Iris version: 1.7.2-DEV
05:55:52 INFO: owslib version: 0.8-dev
05:55:52 INFO: pyoos version: 0.6.2
05:55:56 INFO: ********************* Catalog information **********************
05:55:56 INFO: URL: http://www.ngdc.noaa.gov/geoportal/csw
05:55:56 INFO: CSW version: 2.0.2
05:55:56 INFO: Number of datasets available: 10
05:55:56 INFO: ***************************** CSW ******************************
05:55:56 INFO: USF FVCOM - Nowcast Aggregation
05:55:56 INFO: ROMS/TOMS 3.0 - New Floria Shelf Application
05:55:56 INFO: ROMS/TOMS 3.0 - South-Atlantic Bight and Gulf of Mexico
05:55:56 INFO: COAWST Forecast System : USGS : US East Coast and Gulf of Mexico (Experimental)
05:55:56 INFO: ROMS ESPRESSO Real-Time Operational IS4DVAR Forecast System Version 2 (NEW) 2013-present FMRC History (Best)
05:55:56 INFO: HYbrid Coordinate Ocean Model (HYCOM): Global
05:55:56 INFO: National Data Buoy Center SOS
05:55:56 INFO: Aquarius Level 3 Sea Surface Salinity Standard Mapped Image Daily Data V3.0
05:55:56 INFO: Aquarius Level 3 Sea Surface Salinity Standard Mapped Image Monthly Data V3.0
05:55:56 INFO: Aquarius Level 3 Sea Surface Salinity Standard Mapped Image Weekly Data V3.0
05:55:56 INFO: ***************************** DAP ******************************
05:55:56 INFO: http://crow.marine.usf.edu:8080/thredds/dodsC/FVCOM-Nowcast-Agg.nc.html
05:55:56 INFO: http://crow.marine.usf.edu:8080/thredds/dodsC/WFS_ROMS_NF_model/USF_Ocean_Circulation_Group_West_Florida_Shelf_Daily_ROMS_Nowcast_Forecast_Model_Data_best.ncd.html
05:55:56 INFO: http://geoport.whoi.edu/thredds/dodsC/coawst_4/use/fmrc/coawst_4_use_best.ncd.html
05:55:56 INFO: http://omgsrv1.meas.ncsu.edu:8080/thredds/dodsC/fmrc/sabgom/SABGOM_Forecast_Model_Run_Collection_best.ncd.html
05:55:56 INFO: http://oos.soest.hawaii.edu/thredds/dodsC/pacioos/hycom/global.html
05:55:56 INFO: http://tds.marine.rutgers.edu/thredds/dodsC/roms/espresso/2013_da/his_Best/ESPRESSO_Real-Time_v2_History_Best_Available_best.ncd.html
05:55:56 INFO: http://thredds.axiomalaska.com/thredds/dodsC/Aquarius_V3_SSS_Daily.nc.html
05:55:56 INFO: http://thredds.axiomalaska.com/thredds/dodsC/Aquarius_V3_SSS_Monthly.nc.html
05:55:56 INFO: http://thredds.axiomalaska.com/thredds/dodsC/Aquarius_V3_SSS_Weekly.nc.html
05:55:56 INFO: ***************************** SOS ******************************
05:55:56 INFO: http://sdf.ndbc.noaa.gov/sos/server.php?service=SOS&request=GetCapabilities&acceptVersions=1.0.0
05:55:56 WARNING: USEAST not in the NGDC csw
05:55:56 WARNING: USF_SWAN not in the NGDC csw
05:56:01 WARNING: /home/filipe/miniconda/envs/SECOORA/lib/python2.7/site-packages/iris/fileformats/_pyke_rules/compiled_krb/fc_rules_cf_fc.py:1359: UserWarning: Failed to create 'time' dimension coordinate: The points array must be strictly monotonic.
Gracefully creating 'time' auxiliary coordinate instead.
  error=e_msg))

05:56:01 WARNING: Cannot get cube for: http://129.252.139.124/thredds/dodsC/fit.sispnj.met.nc
Cube does not contain ['sea_water_salinity', 'sea_surface_salinity', 'sea_water_absolute_salinity', 'sea_water_practical_salinity']
05:56:06 WARNING: Cannot get cube for: http://129.252.139.124/thredds/dodsC/usf.nfb.ngwlms.nc
Cube does not contain ['sea_water_salinity', 'sea_surface_salinity', 'sea_water_absolute_salinity', 'sea_water_practical_salinity']
05:56:10 WARNING: Cannot get cube for: http://129.252.139.124/thredds/dodsC/usf.tas.ngwlms.nc
Cube does not contain ['sea_water_salinity', 'sea_surface_salinity', 'sea_water_absolute_salinity', 'sea_water_practical_salinity']
05:56:14 WARNING: Cannot get cube for: http://129.252.139.124/thredds/dodsC/usf.apk.ngwlms.nc
Cube does not contain ['sea_water_salinity', 'sea_surface_salinity', 'sea_water_absolute_salinity', 'sea_water_practical_salinity']
05:56:18 WARNING: Cannot get cube for: http://129.252.139.124/thredds/dodsC/usf.c21.weatherpak.nc
Cube does not contain ['sea_water_salinity', 'sea_surface_salinity', 'sea_water_absolute_salinity', 'sea_water_practical_salinity']
05:56:29 WARNING: Cannot get cube for: http://129.252.139.124/thredds/dodsC/usf.bcp.ngwlms.nc
Cube does not contain ['sea_water_salinity', 'sea_surface_salinity', 'sea_water_absolute_salinity', 'sea_water_practical_salinity']
05:56:33 WARNING: Cannot get cube for: http://129.252.139.124/thredds/dodsC/usf.fhp.ngwlms.nc
Cube does not contain ['sea_water_salinity', 'sea_surface_salinity', 'sea_water_absolute_salinity', 'sea_water_practical_salinity']
05:56:37 WARNING: Cannot get cube for: http://129.252.139.124/thredds/dodsC/usf.c10.mcat.nc
istart must be different from istop! Got istart 48233 and  istop 48233
05:56:40 WARNING: Cannot get cube for: http://129.252.139.124/thredds/dodsC/usf.c12.mcat.nc
istart must be different from istop! Got istart 18711 and  istop 18711
05:56:43 WARNING: Cannot get cube for: http://129.252.139.124/thredds/dodsC/usf.c13.mcat.nc
istart must be different from istop! Got istart 18099 and  istop 18099
05:56:50 WARNING: Cannot get cube for: http://129.252.139.124/thredds/dodsC/usf.c10.mcat_2011.nc
istart must be different from istop! Got istart 26303 and  istop 26303
05:57:12 WARNING: Cannot get cube for: http://129.252.139.124/thredds/dodsC/usf.c12.mcat_2011.nc
istart must be different from istop! Got istart 26303 and  istop 26303
05:57:28 WARNING: Cannot get cube for: http://129.252.139.124/thredds/dodsC/usf.c13.mcat_2011.nc
istart must be different from istop! Got istart 26303 and  istop 26303
05:57:34 WARNING: Cannot get cube for: http://129.252.139.124/thredds/dodsC/carocoops.frp2.buoy.nc
Cube does not contain ['sea_water_salinity', 'sea_surface_salinity', 'sea_water_absolute_salinity', 'sea_water_practical_salinity']
05:57:38 WARNING: Cannot get cube for: http://129.252.139.124/thredds/dodsC/carocoops.cap2.buoy.nc
Cube does not contain ['sea_water_salinity', 'sea_surface_salinity', 'sea_water_absolute_salinity', 'sea_water_practical_salinity']
05:57:52 WARNING: Cannot get cube for: http://129.252.139.124/thredds/dodsC/cormp.ilm1.buoy.nc
istart must be different from istop! Got istart 1443 and  istop 1443
05:57:56 WARNING: Cannot get cube for: http://129.252.139.124/thredds/dodsC/cormp.lej3.buoy.nc
istart must be different from istop! Got istart 91490 and  istop 91490
05:57:58 WARNING: /home/filipe/miniconda/envs/SECOORA/lib/python2.7/site-packages/iris/fileformats/_pyke_rules/compiled_krb/fc_rules_cf_fc.py:1196: UserWarning: Ignoring netCDF variable 'dissolved_oxygen_saturation' invalid units 'mg_L-1'
  warnings.warn(msg.format(msg_name, msg_units))

05:57:59 WARNING: /home/filipe/miniconda/envs/SECOORA/lib/python2.7/site-packages/iris/fileformats/_pyke_rules/compiled_krb/fc_rules_cf_fc.py:1196: UserWarning: Ignoring netCDF variable 'dissolved_oxygen' invalid units 'mg_L-1'
  warnings.warn(msg.format(msg_name, msg_units))

05:57:59 WARNING: /home/filipe/miniconda/envs/SECOORA/lib/python2.7/site-packages/iris/fileformats/_pyke_rules/compiled_krb/fc_rules_cf_fc.py:1196: UserWarning: Ignoring netCDF variable 'cdom' invalid units 'QSDE'
  warnings.warn(msg.format(msg_name, msg_units))

05:57:59 WARNING: /home/filipe/miniconda/envs/SECOORA/lib/python2.7/site-packages/iris/fileformats/_pyke_rules/compiled_krb/fc_rules_cf_fc.py:1196: UserWarning: Ignoring netCDF variable 'turbidity' invalid units 'ntu'
  warnings.warn(msg.format(msg_name, msg_units))

05:57:59 WARNING: /home/filipe/miniconda/envs/SECOORA/lib/python2.7/site-packages/iris/fileformats/_pyke_rules/compiled_krb/fc_rules_cf_fc.py:1196: UserWarning: Ignoring netCDF variable 'conductivity' invalid units 'mS_cm-1'
  warnings.warn(msg.format(msg_name, msg_units))

05:58:03 WARNING: /home/filipe/miniconda/envs/SECOORA/lib/python2.7/site-packages/iris/fileformats/_pyke_rules/compiled_krb/fc_rules_cf_fc.py:1196: UserWarning: Ignoring netCDF variable 'nitrate' invalid units 'uM'
  warnings.warn(msg.format(msg_name, msg_units))

05:58:17 WARNING: /home/filipe/miniconda/envs/SECOORA/lib/python2.7/site-packages/iris/fileformats/_pyke_rules/compiled_krb/fc_rules_cf_fc.py:1196: UserWarning: Ignoring netCDF variable 'conductivity_2' invalid units 'mS_cm-1'
  warnings.warn(msg.format(msg_name, msg_units))

05:58:22 WARNING: Cannot get cube for: http://129.252.139.124/thredds/dodsC/fldep.poncedeleonsouth..nc
Cube does not contain ['sea_water_salinity', 'sea_surface_salinity', 'sea_water_absolute_salinity', 'sea_water_practical_salinity']
05:58:28 WARNING: Cannot get cube for: http://129.252.139.124/thredds/dodsC/fldep.redbaypoint..nc
Cube does not contain ['sea_water_salinity', 'sea_surface_salinity', 'sea_water_absolute_salinity', 'sea_water_practical_salinity']
05:58:37 WARNING: Cannot get cube for: http://129.252.139.124/thredds/dodsC/fldep.naplesbay..nc
Cube does not contain ['sea_water_salinity', 'sea_surface_salinity', 'sea_water_absolute_salinity', 'sea_water_practical_salinity']
05:58:42 WARNING: Cannot get cube for: http://129.252.139.124/thredds/dodsC/fldep.gordonriverinlet..nc
Cube does not contain ['sea_water_salinity', 'sea_surface_salinity', 'sea_water_absolute_salinity', 'sea_water_practical_salinity']
05:58:46 WARNING: Cannot get cube for: http://129.252.139.124/thredds/dodsC/fldep.melbourne..nc
Cube does not contain ['sea_water_salinity', 'sea_surface_salinity', 'sea_water_absolute_salinity', 'sea_water_practical_salinity']
05:58:50 WARNING: Cannot get cube for: http://129.252.139.124/thredds/dodsC/fldep.binneydock..nc
Cube does not contain ['sea_water_salinity', 'sea_surface_salinity', 'sea_water_absolute_salinity', 'sea_water_practical_salinity']
05:58:54 WARNING: Cannot get cube for: http://129.252.139.124/thredds/dodsC/fldep.verobeach..nc
Cube does not contain ['sea_water_salinity', 'sea_surface_salinity', 'sea_water_absolute_salinity', 'sea_water_practical_salinity']
05:58:59 WARNING: Cannot get cube for: http://129.252.139.124/thredds/dodsC/lbhmc.2ndave.pier.nc
Cube does not contain ['sea_water_salinity', 'sea_surface_salinity', 'sea_water_absolute_salinity', 'sea_water_practical_salinity']
05:59:03 WARNING: /home/filipe/miniconda/envs/SECOORA/lib/python2.7/site-packages/iris/fileformats/_pyke_rules/compiled_krb/fc_rules_cf_fc.py:1196: UserWarning: Ignoring netCDF variable 'turbidity_2' invalid units 'ntu'
  warnings.warn(msg.format(msg_name, msg_units))

05:59:03 WARNING: /home/filipe/miniconda/envs/SECOORA/lib/python2.7/site-packages/iris/fileformats/_pyke_rules/compiled_krb/fc_rules_cf_fc.py:1196: UserWarning: Ignoring netCDF variable 'dissolved_oxygen_2' invalid units 'mg_L-1'
  warnings.warn(msg.format(msg_name, msg_units))

05:59:10 WARNING: Cannot get cube for: http://129.252.139.124/thredds/dodsC/enp.wiwf1.met.nc
Cube does not contain ['sea_water_salinity', 'sea_surface_salinity', 'sea_water_absolute_salinity', 'sea_water_practical_salinity']
05:59:13 WARNING: Cannot get cube for: http://129.252.139.124/thredds/dodsC/enp.lbrf1.met.nc
Cube does not contain ['sea_water_salinity', 'sea_surface_salinity', 'sea_water_absolute_salinity', 'sea_water_practical_salinity']
05:59:16 WARNING: Cannot get cube for: http://129.252.139.124/thredds/dodsC/enp.bobf1.met.nc
Cube does not contain ['sea_water_salinity', 'sea_surface_salinity', 'sea_water_absolute_salinity', 'sea_water_practical_salinity']
05:59:19 WARNING: Cannot get cube for: http://129.252.139.124/thredds/dodsC/enp.trrf1.met.nc
Cube does not contain ['sea_water_salinity', 'sea_surface_salinity', 'sea_water_absolute_salinity', 'sea_water_practical_salinity']
05:59:23 WARNING: Cannot get cube for: http://129.252.139.124/thredds/dodsC/enp.wwef1.met.nc
Cube does not contain ['sea_water_salinity', 'sea_surface_salinity', 'sea_water_absolute_salinity', 'sea_water_practical_salinity']
05:59:27 WARNING: Cannot get cube for: http://129.252.139.124/thredds/dodsC/enp.lrif1.met.nc
Cube does not contain ['sea_water_salinity', 'sea_surface_salinity', 'sea_water_absolute_salinity', 'sea_water_practical_salinity']
05:59:30 WARNING: Cannot get cube for: http://129.252.139.124/thredds/dodsC/enp.bwsf1.met.nc
Cube does not contain ['sea_water_salinity', 'sea_surface_salinity', 'sea_water_absolute_salinity', 'sea_water_practical_salinity']
05:59:33 WARNING: Cannot get cube for: http://129.252.139.124/thredds/dodsC/enp.pkyf1.met.nc
Cube does not contain ['sea_water_salinity', 'sea_surface_salinity', 'sea_water_absolute_salinity', 'sea_water_practical_salinity']
05:59:36 WARNING: Cannot get cube for: http://129.252.139.124/thredds/dodsC/enp.lmdf1.met.nc
Cube does not contain ['sea_water_salinity', 'sea_surface_salinity', 'sea_water_absolute_salinity', 'sea_water_practical_salinity']
05:59:40 WARNING: Cannot get cube for: http://129.252.139.124/thredds/dodsC/enp.cnbf1.met.nc
Cube does not contain ['sea_water_salinity', 'sea_surface_salinity', 'sea_water_absolute_salinity', 'sea_water_practical_salinity']
05:59:43 WARNING: Cannot get cube for: http://129.252.139.124/thredds/dodsC/enp.hcef1.met.nc
Cube does not contain ['sea_water_salinity', 'sea_surface_salinity', 'sea_water_absolute_salinity', 'sea_water_practical_salinity']
05:59:46 WARNING: Cannot get cube for: http://129.252.139.124/thredds/dodsC/enp.jkyf1.met.nc
Cube does not contain ['sea_water_salinity', 'sea_surface_salinity', 'sea_water_absolute_salinity', 'sea_water_practical_salinity']
05:59:50 WARNING: Cannot get cube for: http://129.252.139.124/thredds/dodsC/enp.wrbf1.met.nc
Cube does not contain ['sea_water_salinity', 'sea_surface_salinity', 'sea_water_absolute_salinity', 'sea_water_practical_salinity']
05:59:53 WARNING: Cannot get cube for: http://129.252.139.124/thredds/dodsC/enp.gbif1.met.nc
Cube does not contain ['sea_water_salinity', 'sea_surface_salinity', 'sea_water_absolute_salinity', 'sea_water_practical_salinity']
05:59:57 WARNING: Cannot get cube for: http://129.252.139.124/thredds/dodsC/enp.ppta1.met.nc
Cube does not contain ['sea_water_salinity', 'sea_surface_salinity', 'sea_water_absolute_salinity', 'sea_water_practical_salinity']
06:00:00 WARNING: Cannot get cube for: http://129.252.139.124/thredds/dodsC/enp.bdvf1.met.nc
Cube does not contain ['sea_water_salinity', 'sea_surface_salinity', 'sea_water_absolute_salinity', 'sea_water_practical_salinity']
06:00:03 WARNING: Cannot get cube for: http://129.252.139.124/thredds/dodsC/enp.lrkf1.met.nc
Cube does not contain ['sea_water_salinity', 'sea_surface_salinity', 'sea_water_absolute_salinity', 'sea_water_practical_salinity']
06:00:06 WARNING: Cannot get cube for: http://129.252.139.124/thredds/dodsC/enp.bnkf1.met.nc
Cube does not contain ['sea_water_salinity', 'sea_surface_salinity', 'sea_water_absolute_salinity', 'sea_water_practical_salinity']
06:00:10 WARNING: Cannot get cube for: http://129.252.139.124/thredds/dodsC/enp.gbtf1.met.nc
Cube does not contain ['sea_water_salinity', 'sea_surface_salinity', 'sea_water_absolute_salinity', 'sea_water_practical_salinity']
06:00:13 WARNING: Cannot get cube for: http://129.252.139.124/thredds/dodsC/enp.tcvf1.met.nc
Cube does not contain ['sea_water_salinity', 'sea_surface_salinity', 'sea_water_absolute_salinity', 'sea_water_practical_salinity']
06:00:16 WARNING: Cannot get cube for: http://129.252.139.124/thredds/dodsC/enp.canf1.met.nc
Cube does not contain ['sea_water_salinity', 'sea_surface_salinity', 'sea_water_absolute_salinity', 'sea_water_practical_salinity']
06:00:19 WARNING: Cannot get cube for: http://129.252.139.124/thredds/dodsC/enp.lbsf1.met.nc
Cube does not contain ['sea_water_salinity', 'sea_surface_salinity', 'sea_water_absolute_salinity', 'sea_water_practical_salinity']
06:00:23 WARNING: Cannot get cube for: http://129.252.139.124/thredds/dodsC/enp.mukf1.met.nc
Cube does not contain ['sea_water_salinity', 'sea_surface_salinity', 'sea_water_absolute_salinity', 'sea_water_practical_salinity']
06:00:27 WARNING: Cannot get cube for: http://129.252.139.124/thredds/dodsC/enp.dkkf1.met.nc
Cube does not contain ['sea_water_salinity', 'sea_surface_salinity', 'sea_water_absolute_salinity', 'sea_water_practical_salinity']
06:00:31 WARNING: Cannot get cube for: http://129.252.139.124/thredds/dodsC/enp.cwaf1.met.nc
Cube does not contain ['sea_water_salinity', 'sea_surface_salinity', 'sea_water_absolute_salinity', 'sea_water_practical_salinity']
06:00:47 WARNING: /home/filipe/miniconda/envs/SECOORA/lib/python2.7/site-packages/iris/fileformats/_pyke_rules/compiled_krb/fc_rules_cf_fc.py:1196: UserWarning: Ignoring netCDF variable 'phosphate' invalid units 'uM'
  warnings.warn(msg.format(msg_name, msg_units))

06:00:47 WARNING: /home/filipe/miniconda/envs/SECOORA/lib/python2.7/site-packages/iris/fileformats/_pyke_rules/compiled_krb/fc_rules_cf_fc.py:1196: UserWarning: Ignoring netCDF variable 'photosynthetically_available_radiation' invalid units 'micromoles_per_m^2'
  warnings.warn(msg.format(msg_name, msg_units))

06:00:56 INFO: ********************* Collector offerings **********************
06:00:56 INFO: NOAA.NOS.CO-OPS SOS: 1027 offerings
06:01:00 INFO: SOS URL request: http://opendap.co-ops.nos.noaa.gov/ioos-dif-sos/SOS?eventTime=2014-06-30T12%3A00%3A00Z&service=SOS&offering=urn%3Aioos%3Anetwork%3ANOAA.NOS.CO-OPS%3AMetActive&request=GetObservation&version=1.0.0&responseFormat=text%2Fcsv&featureOfInterest=BBOX%3A-87.4%2C24.25%2C-74.7%2C36.7&observedProperty=salinity
06:02:03 INFO: ************************* Observations *************************
06:02:03 INFO: **** Downloading to file 2014-07-07/2014-07-07-OBS_DATA.nc *****
06:02:08 INFO: ********************* SECOORA Observations *********************
06:02:08 INFO:  Downloading to file 2014-07-07/2014-07-07-SECOORA_OBS_DATA.nc *
06:02:08 INFO: **************************** Models ****************************
06:02:08 INFO: 
[Reading url 1/11]: http://crow.marine.usf.edu:8080/thredds/dodsC/FVCOM-Nowcast-Agg.nc
06:07:09 WARNING: Cannot get cube for: http://crow.marine.usf.edu:8080/thredds/dodsC/FVCOM-Nowcast-Agg.nc
Timed out!
06:07:09 INFO: 
[Reading url 2/11]: http://crow.marine.usf.edu:8080/thredds/dodsC/WFS_ROMS_NF_model/USF_Ocean_Circulation_Group_West_Florida_Shelf_Daily_ROMS_Nowcast_Forecast_Model_Data_best.ncd
06:07:20 INFO: 
[Reading url 3/11]: http://geoport.whoi.edu/thredds/dodsC/coawst_4/use/fmrc/coawst_4_use_best.ncd
06:07:45 INFO: 
[Reading url 4/11]: http://omgarch1.meas.ncsu.edu:8080/thredds/dodsC/fmrc/sabgom/SABGOM_Forecast_Model_Run_Collection_best.ncd
06:08:00 INFO: 
[Reading url 5/11]: http://oos.soest.hawaii.edu/thredds/dodsC/pacioos/hycom/global
06:08:03 INFO: 
[Reading url 6/11]: http://tds.marine.rutgers.edu/thredds/dodsC/roms/espresso/2013_da/his_Best/ESPRESSO_Real-Time_v2_History_Best_Available_best.ncd
06:08:12 INFO: 
[Reading url 7/11]: http://thredds.axiomalaska.com/thredds/dodsC/Aquarius_V3_SSS_Daily.nc
06:08:14 WARNING: Cannot get cube for: http://thredds.axiomalaska.com/thredds/dodsC/Aquarius_V3_SSS_Daily.nc
istart must be different from istop! Got istart 992 and  istop 992
06:08:14 INFO: 
[Reading url 8/11]: http://thredds.axiomalaska.com/thredds/dodsC/Aquarius_V3_SSS_Monthly.nc
06:08:16 WARNING: Cannot get cube for: http://thredds.axiomalaska.com/thredds/dodsC/Aquarius_V3_SSS_Monthly.nc
istart must be different from istop! Got istart 35 and  istop 35
06:08:16 INFO: 
[Reading url 9/11]: http://thredds.axiomalaska.com/thredds/dodsC/Aquarius_V3_SSS_Weekly.nc
06:08:19 WARNING: Cannot get cube for: http://thredds.axiomalaska.com/thredds/dodsC/Aquarius_V3_SSS_Weekly.nc
istart must be different from istop! Got istart 149 and  istop 149
06:08:19 INFO: 
[Reading url 10/11]: http://omgsrv1.meas.ncsu.edu:8080/thredds/dodsC/fmrc/us_east/US_East_Forecast_Model_Run_Collection_best.ncd
06:08:33 WARNING: Cannot get cube for: http://omgsrv1.meas.ncsu.edu:8080/thredds/dodsC/fmrc/us_east/US_East_Forecast_Model_Run_Collection_best.ncd
istart must be different from istop! Got istart 0 and  istop 0
06:08:33 INFO: 
[Reading url 11/11]: http://crow.marine.usf.edu:8080/thredds/dodsC/WFS_SWAN_NF_model/USF_Ocean_Circulation_Group_West_Florida_Shelf_Daily_SWAN_Nowcast_Forecast_Wave_Model_Data_best.ncd
06:08:34 WARNING: Cannot get cube for: http://crow.marine.usf.edu:8080/thredds/dodsC/WFS_SWAN_NF_model/USF_Ocean_Circulation_Group_West_Florida_Shelf_Daily_SWAN_Nowcast_Forecast_Wave_Model_Data_best.ncd
Cube does not contain ['sea_water_salinity', 'sea_surface_salinity', 'sea_water_absolute_salinity', 'sea_water_practical_salinity']
06:08:34 INFO: **** Downloading to file 2014-07-07/2014-07-07-USF_ROMS.nc *****
06:08:34 INFO: [No Data] Mayport (Bar Pilots Dock), FL
06:08:34 INFO: [No Data] I-295 Bridge, St Johns River, FL
06:08:34 INFO: [No Data] Tolomato River station
06:08:36 INFO: [Water  ] Shell Point station
06:08:36 INFO: [No Data] Cherry Grove Pier, N. Myrtle Beach, SC
06:08:38 INFO: [Water  ] Gulf of Mexico station
06:08:43 INFO: [Water  ] Shell Point
06:08:43 INFO: [No Data] St Lucie Inlet station
06:08:45 INFO: [Water  ] Redfish Pass station
06:08:45 INFO: [No Data] fau_lobo_1
06:08:45 INFO: [No Data] CORMP ILM3, Wrightsville Beach Offshore, NC
06:08:45 INFO: [No Data] Fort Myers station
06:08:45 INFO: [No Data] CAROCOOPS SUN2, Sunset Nearshore, NC
06:08:45 INFO: [No Data] CORMP ILM2, Wrightsville Beach Nearshore, NC
06:08:45 INFO: [No Data] Bing&#39;s Landing station
06:08:47 INFO: [Water  ] Tarpon Bay station
06:08:47 INFO: [No Data] Apache Pier, Myrtle Beach, SC
06:09:10 INFO: Finished processing [USF_ROMS]: http://crow.marine.usf.edu:8080/thredds/dodsC/WFS_SWAN_NF_model/USF_Ocean_Circulation_Group_West_Florida_Shelf_Daily_SWAN_Nowcast_Forecast_Wave_Model_Data_best.ncd

06:09:10 INFO: **** Downloading to file 2014-07-07/2014-07-07-COAWST_4.nc *****
06:09:16 INFO: [Land   ] Mayport (Bar Pilots Dock), FL
06:09:23 INFO: [Land   ] I-295 Bridge, St Johns River, FL
06:09:28 INFO: [Land   ] Tolomato River station
06:09:40 INFO: [Land   ] Shell Point station
06:09:45 INFO: [Land   ] Cherry Grove Pier, N. Myrtle Beach, SC
06:09:57 INFO: [Water  ] Gulf of Mexico station
06:10:03 INFO: [Land   ] Shell Point
06:10:14 INFO: [Water  ] St Lucie Inlet station
06:10:25 INFO: [Water  ] Redfish Pass station
06:10:31 INFO: [Land   ] fau_lobo_1
06:10:37 INFO: [Water  ] CORMP ILM3, Wrightsville Beach Offshore, NC
06:10:43 INFO: [Land   ] Fort Myers station
06:10:48 INFO: [Water  ] CAROCOOPS SUN2, Sunset Nearshore, NC
06:10:59 INFO: [Water  ] CORMP ILM2, Wrightsville Beach Nearshore, NC
06:11:05 INFO: [Land   ] Bing&#39;s Landing station
06:11:11 INFO: [Water  ] Tarpon Bay station
06:11:16 INFO: [Land   ] Apache Pier, Myrtle Beach, SC
06:12:53 INFO: Finished processing [COAWST_4]: http://crow.marine.usf.edu:8080/thredds/dodsC/WFS_SWAN_NF_model/USF_Ocean_Circulation_Group_West_Florida_Shelf_Daily_SWAN_Nowcast_Forecast_Wave_Model_Data_best.ncd

06:12:53 INFO: **** Downloading to file 2014-07-07/2014-07-07-ESPRESSO.nc *****
06:12:53 INFO: [No Data] Mayport (Bar Pilots Dock), FL
06:12:53 INFO: [No Data] I-295 Bridge, St Johns River, FL
06:12:53 INFO: [No Data] Tolomato River station
06:12:53 INFO: [No Data] Shell Point station
06:12:53 INFO: [No Data] Cherry Grove Pier, N. Myrtle Beach, SC
06:12:53 INFO: [No Data] Gulf of Mexico station
06:12:53 INFO: [No Data] Shell Point
06:12:53 INFO: [No Data] St Lucie Inlet station
06:12:53 INFO: [No Data] Redfish Pass station
06:12:53 INFO: [No Data] fau_lobo_1
06:12:53 INFO: [No Data] CORMP ILM3, Wrightsville Beach Offshore, NC
06:12:53 INFO: [No Data] Fort Myers station
06:12:53 INFO: [No Data] CAROCOOPS SUN2, Sunset Nearshore, NC
06:12:53 INFO: [No Data] CORMP ILM2, Wrightsville Beach Nearshore, NC
06:12:53 INFO: [No Data] Bing&#39;s Landing station
06:12:53 INFO: [No Data] Tarpon Bay station
06:12:53 INFO: [No Data] Apache Pier, Myrtle Beach, SC
06:12:53 INFO: Finished processing [ESPRESSO]: http://crow.marine.usf.edu:8080/thredds/dodsC/WFS_SWAN_NF_model/USF_Ocean_Circulation_Group_West_Florida_Shelf_Daily_SWAN_Nowcast_Forecast_Wave_Model_Data_best.ncd

06:12:53 INFO: **** Downloading to file 2014-07-07/2014-07-07-ROMS_TOMS.nc ****
06:12:55 INFO: [Land   ] Mayport (Bar Pilots Dock), FL
06:12:58 INFO: [Land   ] I-295 Bridge, St Johns River, FL
06:13:00 INFO: [Land   ] Tolomato River station
06:13:03 INFO: [Land   ] Shell Point station
06:13:05 INFO: [Land   ] Cherry Grove Pier, N. Myrtle Beach, SC
06:13:11 INFO: [Land   ] Gulf of Mexico station
06:13:13 INFO: [Land   ] Shell Point
06:13:18 INFO: [Water  ] St Lucie Inlet station
06:13:23 INFO: [Water  ] Redfish Pass station
06:13:26 INFO: [Land   ] fau_lobo_1
06:13:31 INFO: [Water  ] CORMP ILM3, Wrightsville Beach Offshore, NC
06:13:34 INFO: [Land   ] Fort Myers station
06:13:39 INFO: [Water  ] CAROCOOPS SUN2, Sunset Nearshore, NC
06:13:41 INFO: [Water  ] CORMP ILM2, Wrightsville Beach Nearshore, NC
06:13:44 INFO: [Land   ] Bing&#39;s Landing station
06:13:47 INFO: [Water  ] Tarpon Bay station
06:13:49 INFO: [Land   ] Apache Pier, Myrtle Beach, SC
06:14:34 INFO: Finished processing [ROMS_TOMS]: http://crow.marine.usf.edu:8080/thredds/dodsC/WFS_SWAN_NF_model/USF_Ocean_Circulation_Group_West_Florida_Shelf_Daily_SWAN_Nowcast_Forecast_Wave_Model_Data_best.ncd

06:14:34 INFO: ****** Downloading to file 2014-07-07/2014-07-07-HYCOM.nc ******
06:14:37 INFO: [Land   ] Mayport (Bar Pilots Dock), FL
06:14:40 INFO: [Land   ] I-295 Bridge, St Johns River, FL
06:14:44 INFO: [Land   ] Tolomato River station
06:14:46 INFO: [Land   ] Shell Point station
06:14:49 INFO: [Land   ] Cherry Grove Pier, N. Myrtle Beach, SC
06:14:52 INFO: [Land   ] Gulf of Mexico station
06:14:56 INFO: [Land   ] Shell Point
06:14:59 INFO: [Land   ] St Lucie Inlet station
06:15:02 INFO: [Land   ] Redfish Pass station
06:15:05 INFO: [Land   ] fau_lobo_1
06:15:08 INFO: [Water  ] CORMP ILM3, Wrightsville Beach Offshore, NC
06:15:08 INFO: [No Data] Fort Myers station
06:15:10 INFO: [Water  ] CAROCOOPS SUN2, Sunset Nearshore, NC
06:15:10 INFO: [No Data] CORMP ILM2, Wrightsville Beach Nearshore, NC
06:15:13 INFO: [Land   ] Bing&#39;s Landing station
06:15:15 INFO: [Land   ] Tarpon Bay station
06:15:18 INFO: [Land   ] Apache Pier, Myrtle Beach, SC
06:15:18 INFO: Finished processing [HYCOM]: http://crow.marine.usf.edu:8080/thredds/dodsC/WFS_SWAN_NF_model/USF_Ocean_Circulation_Group_West_Florida_Shelf_Daily_SWAN_Nowcast_Forecast_Wave_Model_Data_best.ncd

06:15:19 WARNING: /home/filipe/miniconda/envs/SECOORA/lib/python2.7/site-packages/numpy/core/_methods.py:59: RuntimeWarning: Mean of empty slice.
  warnings.warn("Mean of empty slice.", RuntimeWarning)

06:15:29 INFO: 19.65 minutes
06:15:29 INFO: EOF
