08:46:58 INFO: ************Saving data inside directory 2014-07-07*************
08:46:58 INFO: *********************** Run information ************************
08:46:58 INFO: Run date: 2015-08-03 23:46:58
08:46:58 INFO: Download start: 2014-07-01 12:00:00
08:46:58 INFO: Download stop: 2014-07-07 12:00:00
08:46:58 INFO: Bounding box: -87.40, 24.25,-74.70, 36.70
08:46:58 INFO: *********************** Software version ***********************
08:46:58 INFO: Iris version: 1.8.1
08:46:58 INFO: owslib version: 0.9.0
08:46:58 INFO: pyoos version: 0.6.2
08:47:04 INFO: ********************* Catalog information **********************
08:47:04 INFO: URL: http://www.ngdc.noaa.gov/geoportal/csw
08:47:04 INFO: CSW version: 2.0.2
08:47:04 INFO: Number of datasets available: 28
08:47:04 INFO: ***************************** CSW ******************************
08:47:04 INFO: USF FVCOM - Nowcast Aggregation
08:47:04 INFO: ROMS/TOMS 3.0 - New Floria Shelf Application
08:47:04 INFO: ROMS/TOMS 3.0 - South-Atlantic Bight and Gulf of Mexico
08:47:04 INFO: COAWST Forecast System : USGS : US East Coast and Gulf of Mexico (Experimental)
08:47:04 INFO: ROMS ESPRESSO Real-Time Operational IS4DVAR Forecast System Version 2 (NEW) 2013-present FMRC History (Best)
08:47:04 INFO: HYbrid Coordinate Ocean Model (HYCOM): Global
08:47:04 INFO: National Data Buoy Center SOS
08:47:04 INFO: Aquarius Level 3 Sea Surface Salinity Standard Mapped Image Daily Data V3.0
08:47:04 INFO: Aquarius Level 3 Sea Surface Salinity Standard Mapped Image Monthly Data V3.0
08:47:04 INFO: Aquarius Level 3 Sea Surface Salinity Standard Mapped Image Weekly Data V3.0
08:47:04 INFO: lbhmc.apachepier.pier
08:47:04 INFO: lbhmc.cherrygrove.pier
08:47:04 INFO: sccf.fortmyers.wq
08:47:04 INFO: sccf.gulfofmexico.wq
08:47:04 INFO: sccf.redfishpass.wq
08:47:04 INFO: sccf.shellpoint.wq
08:47:04 INFO: sccf.tarponbay.wq
08:47:04 INFO: usf.shp.ngwlms
08:47:04 INFO: fau.lobo.1
08:47:04 INFO: fldep.bingslanding.
08:47:04 INFO: fldep.stlucieinlet.
08:47:04 INFO: fldep.tolomatoriver.
08:47:04 INFO: carocoops.cap2.buoy
08:47:04 INFO: carocoops.cap2.buoy
08:47:04 INFO: carocoops.frp2.buoy
08:47:04 INFO: carocoops.frp2.buoy
08:47:04 INFO: carocoops.sun2.buoy
08:47:04 INFO: lbhmc.2ndave.pier
08:47:04 INFO: ***************************** SOS ******************************
08:47:04 INFO: http://sdf.ndbc.noaa.gov/sos/server.php?service=SOS&request=GetCapabilities&acceptVersions=1.0.0
08:47:04 INFO: http://tds.secoora.org/thredds/sos/carocoops.cap2.buoy.nc?service=SOS&version=1.0.0&request=GetCapabilities
08:47:04 INFO: http://tds.secoora.org/thredds/sos/carocoops.cap2.buoy_archive.nc?service=SOS&version=1.0.0&request=GetCapabilities
08:47:04 INFO: http://tds.secoora.org/thredds/sos/carocoops.frp2.buoy.nc?service=SOS&version=1.0.0&request=GetCapabilities
08:47:04 INFO: http://tds.secoora.org/thredds/sos/carocoops.frp2.buoy_archive.nc?service=SOS&version=1.0.0&request=GetCapabilities
08:47:04 INFO: http://tds.secoora.org/thredds/sos/carocoops.sun2.buoy_archive.nc?service=SOS&version=1.0.0&request=GetCapabilities
08:47:04 INFO: http://tds.secoora.org/thredds/sos/fau.lobo.1.nc?service=SOS&version=1.0.0&request=GetCapabilities
08:47:04 INFO: http://tds.secoora.org/thredds/sos/fldep.bingslanding..nc?service=SOS&version=1.0.0&request=GetCapabilities
08:47:04 INFO: http://tds.secoora.org/thredds/sos/fldep.stlucieinlet..nc?service=SOS&version=1.0.0&request=GetCapabilities
08:47:04 INFO: http://tds.secoora.org/thredds/sos/fldep.tolomatoriver..nc?service=SOS&version=1.0.0&request=GetCapabilities
08:47:04 INFO: http://tds.secoora.org/thredds/sos/lbhmc.2ndave.pier.nc?service=SOS&version=1.0.0&request=GetCapabilities
08:47:04 INFO: http://tds.secoora.org/thredds/sos/lbhmc.apachepier.pier.nc?service=SOS&version=1.0.0&request=GetCapabilities
08:47:04 INFO: http://tds.secoora.org/thredds/sos/lbhmc.cherrygrove.pier.nc?service=SOS&version=1.0.0&request=GetCapabilities
08:47:04 INFO: http://tds.secoora.org/thredds/sos/sccf.fortmyers.wq.nc?service=SOS&version=1.0.0&request=GetCapabilities
08:47:04 INFO: http://tds.secoora.org/thredds/sos/sccf.gulfofmexico.wq.nc?service=SOS&version=1.0.0&request=GetCapabilities
08:47:04 INFO: http://tds.secoora.org/thredds/sos/sccf.redfishpass.wq.nc?service=SOS&version=1.0.0&request=GetCapabilities
08:47:04 INFO: http://tds.secoora.org/thredds/sos/sccf.shellpoint.wq.nc?service=SOS&version=1.0.0&request=GetCapabilities
08:47:04 INFO: http://tds.secoora.org/thredds/sos/sccf.tarponbay.wq.nc?service=SOS&version=1.0.0&request=GetCapabilities
08:47:04 INFO: http://tds.secoora.org/thredds/sos/usf.shp.ngwlms.nc?service=SOS&version=1.0.0&request=GetCapabilities
08:47:04 INFO: ***************************** DAP ******************************
08:47:04 INFO: http://crow.marine.usf.edu:8080/thredds/dodsC/FVCOM-Nowcast-Agg.nc.html
08:47:04 INFO: http://crow.marine.usf.edu:8080/thredds/dodsC/WFS_ROMS_NF_model/USF_Ocean_Circulation_Group_West_Florida_Shelf_Daily_ROMS_Nowcast_Forecast_Model_Data_best.ncd.html
08:47:04 INFO: http://geoport.whoi.edu/thredds/dodsC/coawst_4/use/fmrc/coawst_4_use_best.ncd.html
08:47:04 INFO: http://omgsrv1.meas.ncsu.edu:8080/thredds/dodsC/fmrc/sabgom/SABGOM_Forecast_Model_Run_Collection_best.ncd.html
08:47:04 INFO: http://oos.soest.hawaii.edu/thredds/dodsC/pacioos/hycom/global.html
08:47:04 INFO: http://tds.marine.rutgers.edu/thredds/dodsC/roms/espresso/2013_da/his_Best/ESPRESSO_Real-Time_v2_History_Best_Available_best.ncd.html
08:47:04 INFO: http://tds.secoora.org/thredds/dodsC/carocoops.cap2.buoy.nc.html
08:47:04 INFO: http://tds.secoora.org/thredds/dodsC/carocoops.cap2.buoy_archive.nc.html
08:47:04 INFO: http://tds.secoora.org/thredds/dodsC/carocoops.frp2.buoy.nc.html
08:47:04 INFO: http://tds.secoora.org/thredds/dodsC/carocoops.frp2.buoy_archive.nc.html
08:47:04 INFO: http://tds.secoora.org/thredds/dodsC/carocoops.sun2.buoy_archive.nc.html
08:47:04 INFO: http://tds.secoora.org/thredds/dodsC/fau.lobo.1.nc.html
08:47:04 INFO: http://tds.secoora.org/thredds/dodsC/fldep.bingslanding..nc.html
08:47:04 INFO: http://tds.secoora.org/thredds/dodsC/fldep.stlucieinlet..nc.html
08:47:04 INFO: http://tds.secoora.org/thredds/dodsC/fldep.tolomatoriver..nc.html
08:47:04 INFO: http://tds.secoora.org/thredds/dodsC/lbhmc.2ndave.pier.nc.html
08:47:04 INFO: http://tds.secoora.org/thredds/dodsC/lbhmc.apachepier.pier.nc.html
08:47:04 INFO: http://tds.secoora.org/thredds/dodsC/lbhmc.cherrygrove.pier.nc.html
08:47:04 INFO: http://tds.secoora.org/thredds/dodsC/sccf.fortmyers.wq.nc.html
08:47:04 INFO: http://tds.secoora.org/thredds/dodsC/sccf.gulfofmexico.wq.nc.html
08:47:04 INFO: http://tds.secoora.org/thredds/dodsC/sccf.redfishpass.wq.nc.html
08:47:04 INFO: http://tds.secoora.org/thredds/dodsC/sccf.shellpoint.wq.nc.html
08:47:04 INFO: http://tds.secoora.org/thredds/dodsC/sccf.tarponbay.wq.nc.html
08:47:04 INFO: http://tds.secoora.org/thredds/dodsC/usf.shp.ngwlms.nc.html
08:47:04 INFO: http://thredds.axiomdatascience.com/thredds/dodsC/Aquarius_V3_SSS_Daily.nc.html
08:47:04 INFO: http://thredds.axiomdatascience.com/thredds/dodsC/Aquarius_V3_SSS_Monthly.nc.html
08:47:04 INFO: http://thredds.axiomdatascience.com/thredds/dodsC/Aquarius_V3_SSS_Weekly.nc.html
08:48:42 INFO: ************************* Filtered DAP *************************
08:48:42 INFO: http://crow.marine.usf.edu:8080/thredds/dodsC/FVCOM-Nowcast-Agg.nc.html
08:48:42 INFO: http://crow.marine.usf.edu:8080/thredds/dodsC/WFS_ROMS_NF_model/USF_Ocean_Circulation_Group_West_Florida_Shelf_Daily_ROMS_Nowcast_Forecast_Model_Data_best.ncd.html
08:48:42 INFO: http://geoport.whoi.edu/thredds/dodsC/coawst_4/use/fmrc/coawst_4_use_best.ncd.html
08:48:42 INFO: http://omgsrv1.meas.ncsu.edu:8080/thredds/dodsC/fmrc/sabgom/SABGOM_Forecast_Model_Run_Collection_best.ncd.html
08:48:42 INFO: http://oos.soest.hawaii.edu/thredds/dodsC/pacioos/hycom/global.html
08:48:42 INFO: http://tds.marine.rutgers.edu/thredds/dodsC/roms/espresso/2013_da/his_Best/ESPRESSO_Real-Time_v2_History_Best_Available_best.ncd.html
08:48:42 INFO: http://thredds.axiomdatascience.com/thredds/dodsC/Aquarius_V3_SSS_Daily.nc.html
08:48:42 INFO: http://thredds.axiomdatascience.com/thredds/dodsC/Aquarius_V3_SSS_Monthly.nc.html
08:48:42 INFO: http://thredds.axiomdatascience.com/thredds/dodsC/Aquarius_V3_SSS_Weekly.nc.html
08:48:42 WARNING: USEAST not in the NGDC csw
08:48:42 WARNING: USF_SWAN not in the NGDC csw
08:48:49 WARNING: Cannot get cube for: http://129.252.139.124/thredds/dodsC/fit.sispnj.met.nc
Cannot find ['sea_water_salinity', 'sea_surface_salinity', 'sea_water_absolute_salinity', 'sea_water_practical_salinity'] in http://129.252.139.124/thredds/dodsC/fit.sispnj.met.nc.
08:48:56 WARNING: Cannot get cube for: http://129.252.139.124/thredds/dodsC/usf.nfb.ngwlms.nc
Cannot find ['sea_water_salinity', 'sea_surface_salinity', 'sea_water_absolute_salinity', 'sea_water_practical_salinity'] in http://129.252.139.124/thredds/dodsC/usf.nfb.ngwlms.nc.
08:49:12 WARNING: Cannot get cube for: http://129.252.139.124/thredds/dodsC/usf.tas.ngwlms.nc
Cannot find ['sea_water_salinity', 'sea_surface_salinity', 'sea_water_absolute_salinity', 'sea_water_practical_salinity'] in http://129.252.139.124/thredds/dodsC/usf.tas.ngwlms.nc.
08:49:25 WARNING: Cannot get cube for: http://129.252.139.124/thredds/dodsC/usf.apk.ngwlms.nc
Cannot find ['sea_water_salinity', 'sea_surface_salinity', 'sea_water_absolute_salinity', 'sea_water_practical_salinity'] in http://129.252.139.124/thredds/dodsC/usf.apk.ngwlms.nc.
08:49:36 WARNING: Cannot get cube for: http://129.252.139.124/thredds/dodsC/usf.c21.weatherpak.nc
Cannot find ['sea_water_salinity', 'sea_surface_salinity', 'sea_water_absolute_salinity', 'sea_water_practical_salinity'] in http://129.252.139.124/thredds/dodsC/usf.c21.weatherpak.nc.
08:49:55 WARNING: Cannot get cube for: http://129.252.139.124/thredds/dodsC/usf.bcp.ngwlms.nc
Cannot find ['sea_water_salinity', 'sea_surface_salinity', 'sea_water_absolute_salinity', 'sea_water_practical_salinity'] in http://129.252.139.124/thredds/dodsC/usf.bcp.ngwlms.nc.
08:50:10 WARNING: Cannot get cube for: http://129.252.139.124/thredds/dodsC/usf.fhp.ngwlms.nc
Cannot find ['sea_water_salinity', 'sea_surface_salinity', 'sea_water_absolute_salinity', 'sea_water_practical_salinity'] in http://129.252.139.124/thredds/dodsC/usf.fhp.ngwlms.nc.
08:50:19 WARNING: Cannot get cube for: http://129.252.139.124/thredds/dodsC/usf.c10.mcat.nc
istart must be different from istop! Got istart 48233 and  istop 48233
08:50:32 WARNING: Cannot get cube for: http://129.252.139.124/thredds/dodsC/c10_salinity_water_temp.nc
'Expected to find exactly 1  coordinate, but found none.'
08:50:42 WARNING: Cannot get cube for: http://129.252.139.124/thredds/dodsC/QC_C10_Temp_full.nc
Cannot find ['sea_water_salinity', 'sea_surface_salinity', 'sea_water_absolute_salinity', 'sea_water_practical_salinity'] in http://129.252.139.124/thredds/dodsC/QC_C10_Temp_full.nc.
08:50:53 WARNING: Cannot get cube for: http://129.252.139.124/thredds/dodsC/QC_C10_Sal_full.nc
'Expected to find exactly 1  coordinate, but found none.'
08:50:58 WARNING: Cannot get cube for: http://129.252.139.124/thredds/dodsC/usf.c12.mcat.nc
istart must be different from istop! Got istart 18711 and  istop 18711
08:51:04 WARNING: Cannot get cube for: http://129.252.139.124/thredds/dodsC/usf.c13.mcat.nc
istart must be different from istop! Got istart 18099 and  istop 18099
08:51:13 WARNING: Cannot get cube for: http://129.252.139.124/thredds/dodsC/usf.c10.mcat_2011.nc
istart must be different from istop! Got istart 26303 and  istop 26303
08:51:18 WARNING: Cannot get cube for: http://129.252.139.124/thredds/dodsC/usf.c12.mcat_2011.nc
istart must be different from istop! Got istart 26303 and  istop 26303
08:51:24 WARNING: Cannot get cube for: http://129.252.139.124/thredds/dodsC/usf.c13.mcat_2011.nc
istart must be different from istop! Got istart 26303 and  istop 26303
08:52:24 WARNING: Cannot get cube for: http://129.252.139.124/thredds/dodsC/cormp.ilm1.buoy.nc
istart must be different from istop! Got istart 1443 and  istop 1443
08:52:38 WARNING: Cannot get cube for: http://129.252.139.124/thredds/dodsC/cormp.lej3.buoy.nc
istart must be different from istop! Got istart 91490 and  istop 91490
08:53:50 WARNING: Cannot get cube for: http://129.252.139.124/thredds/dodsC/fldep.poncedeleonsouth..nc
Cannot find ['sea_water_salinity', 'sea_surface_salinity', 'sea_water_absolute_salinity', 'sea_water_practical_salinity'] in http://129.252.139.124/thredds/dodsC/fldep.poncedeleonsouth..nc.
08:54:14 WARNING: Cannot get cube for: http://129.252.139.124/thredds/dodsC/fldep.redbaypoint..nc
Cannot find ['sea_water_salinity', 'sea_surface_salinity', 'sea_water_absolute_salinity', 'sea_water_practical_salinity'] in http://129.252.139.124/thredds/dodsC/fldep.redbaypoint..nc.
08:54:51 WARNING: Cannot get cube for: http://129.252.139.124/thredds/dodsC/fldep.naplesbay..nc
Cannot find ['sea_water_salinity', 'sea_surface_salinity', 'sea_water_absolute_salinity', 'sea_water_practical_salinity'] in http://129.252.139.124/thredds/dodsC/fldep.naplesbay..nc.
08:55:09 WARNING: Cannot get cube for: http://129.252.139.124/thredds/dodsC/fldep.gordonriverinlet..nc
Cannot find ['sea_water_salinity', 'sea_surface_salinity', 'sea_water_absolute_salinity', 'sea_water_practical_salinity'] in http://129.252.139.124/thredds/dodsC/fldep.gordonriverinlet..nc.
08:55:26 WARNING: Cannot get cube for: http://129.252.139.124/thredds/dodsC/fldep.melbourne..nc
Cannot find ['sea_water_salinity', 'sea_surface_salinity', 'sea_water_absolute_salinity', 'sea_water_practical_salinity'] in http://129.252.139.124/thredds/dodsC/fldep.melbourne..nc.
08:55:54 WARNING: Cannot get cube for: http://129.252.139.124/thredds/dodsC/fldep.binneydock..nc
Cannot find ['sea_water_salinity', 'sea_surface_salinity', 'sea_water_absolute_salinity', 'sea_water_practical_salinity'] in http://129.252.139.124/thredds/dodsC/fldep.binneydock..nc.
08:56:19 WARNING: Cannot get cube for: http://129.252.139.124/thredds/dodsC/fldep.verobeach..nc
Cannot find ['sea_water_salinity', 'sea_surface_salinity', 'sea_water_absolute_salinity', 'sea_water_practical_salinity'] in http://129.252.139.124/thredds/dodsC/fldep.verobeach..nc.
08:57:27 WARNING: Cannot get cube for: http://129.252.139.124/thredds/dodsC/enp.wiwf1.met.nc
Cannot find ['sea_water_salinity', 'sea_surface_salinity', 'sea_water_absolute_salinity', 'sea_water_practical_salinity'] in http://129.252.139.124/thredds/dodsC/enp.wiwf1.met.nc.
08:57:36 WARNING: Cannot get cube for: http://129.252.139.124/thredds/dodsC/enp.lbrf1.met.nc
Cannot find ['sea_water_salinity', 'sea_surface_salinity', 'sea_water_absolute_salinity', 'sea_water_practical_salinity'] in http://129.252.139.124/thredds/dodsC/enp.lbrf1.met.nc.
08:57:45 WARNING: Cannot get cube for: http://129.252.139.124/thredds/dodsC/enp.bobf1.met.nc
Cannot find ['sea_water_salinity', 'sea_surface_salinity', 'sea_water_absolute_salinity', 'sea_water_practical_salinity'] in http://129.252.139.124/thredds/dodsC/enp.bobf1.met.nc.
08:57:53 WARNING: Cannot get cube for: http://129.252.139.124/thredds/dodsC/enp.trrf1.met.nc
Cannot find ['sea_water_salinity', 'sea_surface_salinity', 'sea_water_absolute_salinity', 'sea_water_practical_salinity'] in http://129.252.139.124/thredds/dodsC/enp.trrf1.met.nc.
08:58:00 WARNING: Cannot get cube for: http://129.252.139.124/thredds/dodsC/enp.wwef1.met.nc
Cannot find ['sea_water_salinity', 'sea_surface_salinity', 'sea_water_absolute_salinity', 'sea_water_practical_salinity'] in http://129.252.139.124/thredds/dodsC/enp.wwef1.met.nc.
08:58:06 WARNING: Cannot get cube for: http://129.252.139.124/thredds/dodsC/enp.lrif1.met.nc
Cannot find ['sea_water_salinity', 'sea_surface_salinity', 'sea_water_absolute_salinity', 'sea_water_practical_salinity'] in http://129.252.139.124/thredds/dodsC/enp.lrif1.met.nc.
08:58:13 WARNING: Cannot get cube for: http://129.252.139.124/thredds/dodsC/enp.bwsf1.met.nc
Cannot find ['sea_water_salinity', 'sea_surface_salinity', 'sea_water_absolute_salinity', 'sea_water_practical_salinity'] in http://129.252.139.124/thredds/dodsC/enp.bwsf1.met.nc.
08:58:19 WARNING: Cannot get cube for: http://129.252.139.124/thredds/dodsC/enp.pkyf1.met.nc
Cannot find ['sea_water_salinity', 'sea_surface_salinity', 'sea_water_absolute_salinity', 'sea_water_practical_salinity'] in http://129.252.139.124/thredds/dodsC/enp.pkyf1.met.nc.
08:58:26 WARNING: Cannot get cube for: http://129.252.139.124/thredds/dodsC/enp.lmdf1.met.nc
Cannot find ['sea_water_salinity', 'sea_surface_salinity', 'sea_water_absolute_salinity', 'sea_water_practical_salinity'] in http://129.252.139.124/thredds/dodsC/enp.lmdf1.met.nc.
08:58:34 WARNING: Cannot get cube for: http://129.252.139.124/thredds/dodsC/enp.cnbf1.met.nc
Cannot find ['sea_water_salinity', 'sea_surface_salinity', 'sea_water_absolute_salinity', 'sea_water_practical_salinity'] in http://129.252.139.124/thredds/dodsC/enp.cnbf1.met.nc.
08:58:42 WARNING: Cannot get cube for: http://129.252.139.124/thredds/dodsC/enp.hcef1.met.nc
Cannot find ['sea_water_salinity', 'sea_surface_salinity', 'sea_water_absolute_salinity', 'sea_water_practical_salinity'] in http://129.252.139.124/thredds/dodsC/enp.hcef1.met.nc.
08:58:48 WARNING: Cannot get cube for: http://129.252.139.124/thredds/dodsC/enp.jkyf1.met.nc
Cannot find ['sea_water_salinity', 'sea_surface_salinity', 'sea_water_absolute_salinity', 'sea_water_practical_salinity'] in http://129.252.139.124/thredds/dodsC/enp.jkyf1.met.nc.
08:58:56 WARNING: Cannot get cube for: http://129.252.139.124/thredds/dodsC/enp.wrbf1.met.nc
Cannot find ['sea_water_salinity', 'sea_surface_salinity', 'sea_water_absolute_salinity', 'sea_water_practical_salinity'] in http://129.252.139.124/thredds/dodsC/enp.wrbf1.met.nc.
08:59:05 WARNING: Cannot get cube for: http://129.252.139.124/thredds/dodsC/enp.gbif1.met.nc
Cannot find ['sea_water_salinity', 'sea_surface_salinity', 'sea_water_absolute_salinity', 'sea_water_practical_salinity'] in http://129.252.139.124/thredds/dodsC/enp.gbif1.met.nc.
08:59:18 WARNING: Cannot get cube for: http://129.252.139.124/thredds/dodsC/enp.ppta1.met.nc
Cannot find ['sea_water_salinity', 'sea_surface_salinity', 'sea_water_absolute_salinity', 'sea_water_practical_salinity'] in http://129.252.139.124/thredds/dodsC/enp.ppta1.met.nc.
08:59:24 WARNING: Cannot get cube for: http://129.252.139.124/thredds/dodsC/enp.bdvf1.met.nc
Cannot find ['sea_water_salinity', 'sea_surface_salinity', 'sea_water_absolute_salinity', 'sea_water_practical_salinity'] in http://129.252.139.124/thredds/dodsC/enp.bdvf1.met.nc.
08:59:30 WARNING: Cannot get cube for: http://129.252.139.124/thredds/dodsC/enp.lrkf1.met.nc
Cannot find ['sea_water_salinity', 'sea_surface_salinity', 'sea_water_absolute_salinity', 'sea_water_practical_salinity'] in http://129.252.139.124/thredds/dodsC/enp.lrkf1.met.nc.
08:59:36 WARNING: Cannot get cube for: http://129.252.139.124/thredds/dodsC/enp.bnkf1.met.nc
Cannot find ['sea_water_salinity', 'sea_surface_salinity', 'sea_water_absolute_salinity', 'sea_water_practical_salinity'] in http://129.252.139.124/thredds/dodsC/enp.bnkf1.met.nc.
08:59:42 WARNING: Cannot get cube for: http://129.252.139.124/thredds/dodsC/enp.gbtf1.met.nc
Cannot find ['sea_water_salinity', 'sea_surface_salinity', 'sea_water_absolute_salinity', 'sea_water_practical_salinity'] in http://129.252.139.124/thredds/dodsC/enp.gbtf1.met.nc.
08:59:49 WARNING: Cannot get cube for: http://129.252.139.124/thredds/dodsC/enp.tcvf1.met.nc
Cannot find ['sea_water_salinity', 'sea_surface_salinity', 'sea_water_absolute_salinity', 'sea_water_practical_salinity'] in http://129.252.139.124/thredds/dodsC/enp.tcvf1.met.nc.
08:59:55 WARNING: Cannot get cube for: http://129.252.139.124/thredds/dodsC/enp.canf1.met.nc
Cannot find ['sea_water_salinity', 'sea_surface_salinity', 'sea_water_absolute_salinity', 'sea_water_practical_salinity'] in http://129.252.139.124/thredds/dodsC/enp.canf1.met.nc.
09:00:04 WARNING: Cannot get cube for: http://129.252.139.124/thredds/dodsC/enp.lbsf1.met.nc
Cannot find ['sea_water_salinity', 'sea_surface_salinity', 'sea_water_absolute_salinity', 'sea_water_practical_salinity'] in http://129.252.139.124/thredds/dodsC/enp.lbsf1.met.nc.
09:00:10 WARNING: Cannot get cube for: http://129.252.139.124/thredds/dodsC/enp.mukf1.met.nc
Cannot find ['sea_water_salinity', 'sea_surface_salinity', 'sea_water_absolute_salinity', 'sea_water_practical_salinity'] in http://129.252.139.124/thredds/dodsC/enp.mukf1.met.nc.
09:00:17 WARNING: Cannot get cube for: http://129.252.139.124/thredds/dodsC/enp.dkkf1.met.nc
Cannot find ['sea_water_salinity', 'sea_surface_salinity', 'sea_water_absolute_salinity', 'sea_water_practical_salinity'] in http://129.252.139.124/thredds/dodsC/enp.dkkf1.met.nc.
09:00:23 WARNING: Cannot get cube for: http://129.252.139.124/thredds/dodsC/enp.cwaf1.met.nc
Cannot find ['sea_water_salinity', 'sea_surface_salinity', 'sea_water_absolute_salinity', 'sea_water_practical_salinity'] in http://129.252.139.124/thredds/dodsC/enp.cwaf1.met.nc.
09:00:41 INFO: ********************* Collector offerings **********************
09:00:41 INFO: NOAA.NOS.CO-OPS SOS: 1048 offerings
09:00:45 INFO: SOS URL request: http://opendap.co-ops.nos.noaa.gov/ioos-dif-sos/SOS?eventTime=2014-07-01T12%3A00%3A00Z&service=SOS&offering=urn%3Aioos%3Anetwork%3ANOAA.NOS.CO-OPS%3AMetActive&request=GetObservation&version=1.0.0&responseFormat=text%2Fcsv&featureOfInterest=BBOX%3A-87.4%2C24.25%2C-74.7%2C36.7&observedProperty=salinity
09:02:33 INFO: ************************* Observations *************************
09:02:33 INFO: ********** Downloading to file 2014-07-07/config.pkl ***********
09:02:41 WARNING: /home/filipe/miniconda/envs/SECOORA/lib/python2.7/site-packages/iris/fileformats/netcdf.py:1783: UserWarning: NetCDF default saving behaviour currently assigns the outermost dimensions to unlimited. This behaviour is to be deprecated, in favour of no automatic assignment. To switch to the new behaviour, set iris.FUTURE.netcdf_no_unlimited to True.
  warnings.warn(msg)

09:02:41 INFO: ********************* SECOORA Observations *********************
09:02:41 INFO:  Downloading to file 2014-07-07/2014-07-07-SECOORA_OBS_DATA.nc *
09:02:41 INFO: **************************** Models ****************************
09:02:41 INFO: 
[Reading url 1/11]: http://crow.marine.usf.edu:8080/thredds/dodsC/FVCOM-Nowcast-Agg.nc
09:07:41 WARNING: Cannot get cube for: http://crow.marine.usf.edu:8080/thredds/dodsC/FVCOM-Nowcast-Agg.nc
Timed out!
09:07:41 INFO: 
[Reading url 2/11]: http://crow.marine.usf.edu:8080/thredds/dodsC/WFS_ROMS_NF_model/USF_Ocean_Circulation_Group_West_Florida_Shelf_Daily_ROMS_Nowcast_Forecast_Model_Data_best.ncd
09:07:53 INFO: 
[Reading url 3/11]: http://geoport.whoi.edu/thredds/dodsC/coawst_4/use/fmrc/coawst_4_use_best.ncd
09:08:32 INFO: 
[Reading url 4/11]: http://omgarch1.meas.ncsu.edu:8080/thredds/dodsC/fmrc/sabgom/SABGOM_Forecast_Model_Run_Collection_best.ncd
09:13:12 INFO: 
[Reading url 5/11]: http://oos.soest.hawaii.edu/thredds/dodsC/pacioos/hycom/global
09:13:16 INFO: 
[Reading url 6/11]: http://tds.marine.rutgers.edu/thredds/dodsC/roms/espresso/2013_da/his_Best/ESPRESSO_Real-Time_v2_History_Best_Available_best.ncd
09:14:34 INFO: 
[Reading url 7/11]: http://thredds.axiomdatascience.com/thredds/dodsC/Aquarius_V3_SSS_Daily.nc
09:14:41 WARNING: Cannot get cube for: http://thredds.axiomdatascience.com/thredds/dodsC/Aquarius_V3_SSS_Daily.nc
istart must be different from istop! Got istart 992 and  istop 992
09:14:41 INFO: 
[Reading url 8/11]: http://thredds.axiomdatascience.com/thredds/dodsC/Aquarius_V3_SSS_Monthly.nc
09:14:45 WARNING: Cannot get cube for: http://thredds.axiomdatascience.com/thredds/dodsC/Aquarius_V3_SSS_Monthly.nc
istart must be different from istop! Got istart 35 and  istop 35
09:14:45 INFO: 
[Reading url 9/11]: http://thredds.axiomdatascience.com/thredds/dodsC/Aquarius_V3_SSS_Weekly.nc
09:14:55 WARNING: Cannot get cube for: http://thredds.axiomdatascience.com/thredds/dodsC/Aquarius_V3_SSS_Weekly.nc
istart must be different from istop! Got istart 149 and  istop 149
09:14:55 INFO: 
[Reading url 10/11]: http://omgsrv1.meas.ncsu.edu:8080/thredds/dodsC/fmrc/us_east/US_East_Forecast_Model_Run_Collection_best.ncd
09:15:15 WARNING: Cannot get cube for: http://omgsrv1.meas.ncsu.edu:8080/thredds/dodsC/fmrc/us_east/US_East_Forecast_Model_Run_Collection_best.ncd
istart must be different from istop! Got istart 0 and  istop 0
09:15:15 INFO: 
[Reading url 11/11]: http://crow.marine.usf.edu:8080/thredds/dodsC/WFS_SWAN_NF_model/USF_Ocean_Circulation_Group_West_Florida_Shelf_Daily_SWAN_Nowcast_Forecast_Wave_Model_Data_best.ncd
09:15:17 WARNING: Cannot get cube for: http://crow.marine.usf.edu:8080/thredds/dodsC/WFS_SWAN_NF_model/USF_Ocean_Circulation_Group_West_Florida_Shelf_Daily_SWAN_Nowcast_Forecast_Wave_Model_Data_best.ncd
Cannot find ['sea_water_salinity', 'sea_surface_salinity', 'sea_water_absolute_salinity', 'sea_water_practical_salinity'] in http://crow.marine.usf.edu:8080/thredds/dodsC/WFS_SWAN_NF_model/USF_Ocean_Circulation_Group_West_Florida_Shelf_Daily_SWAN_Nowcast_Forecast_Wave_Model_Data_best.ncd.
09:15:17 INFO: **** Downloading to file 2014-07-07/2014-07-07-USF_ROMS.nc *****
09:15:17 INFO: [No Data] I-295 Bridge, St Johns River, FL
09:15:17 INFO: [No Data] Red Bay Point, St Johns River, FL
09:15:17 INFO: [No Data] Tolomato River station
09:15:17 INFO: [No Data] CAROCOOPS CAP2, Capers Island Nearshore, SC
09:15:22 INFO: [Water  ] Shell Point station
09:15:22 INFO: [No Data] Cherry Grove Pier, N. Myrtle Beach, SC
09:15:26 INFO: [Water  ] Gulf of Mexico station
09:15:40 INFO: [Water  ] Shell Point
09:15:40 INFO: [No Data] St Lucie Inlet station
09:15:46 INFO: [Water  ] Redfish Pass station
09:15:46 INFO: [No Data] fau_lobo_1
09:15:46 INFO: [No Data] CORMP ILM3, Wrightsville Beach Offshore, NC
09:15:46 INFO: [No Data] Fort Myers station
09:15:46 INFO: [No Data] CAROCOOPS SUN2, Sunset Nearshore, NC
09:15:46 INFO: [No Data] CORMP ILM2, Wrightsville Beach Nearshore, NC
09:15:46 INFO: [No Data] Bing's Landing station
09:15:46 INFO: [No Data] 2nd Ave North Pier, Myrtle Beach, SC
09:15:51 INFO: [Water  ] Tarpon Bay station
09:15:51 INFO: [No Data] CAROCOOPS FRP2, Fripp Nearshore, SC
09:15:51 INFO: [No Data] Apache Pier, Myrtle Beach, SC
09:16:03 INFO: Finished processing [USF_ROMS]: http://crow.marine.usf.edu:8080/thredds/dodsC/WFS_SWAN_NF_model/USF_Ocean_Circulation_Group_West_Florida_Shelf_Daily_SWAN_Nowcast_Forecast_Wave_Model_Data_best.ncd

09:16:03 INFO: * Downloading to file 2014-07-07/2014-07-07-SABGOM_ARCHIVE.nc **
09:16:07 INFO: [Land   ] I-295 Bridge, St Johns River, FL
09:16:10 INFO: [Land   ] Red Bay Point, St Johns River, FL
09:16:13 INFO: [Land   ] Tolomato River station
09:16:17 INFO: [Water  ] CAROCOOPS CAP2, Capers Island Nearshore, SC
09:16:20 INFO: [Land   ] Shell Point station
09:16:23 INFO: [Land   ] Cherry Grove Pier, N. Myrtle Beach, SC
09:16:29 INFO: [Land   ] Gulf of Mexico station
09:16:33 INFO: [Land   ] Shell Point
09:16:40 INFO: [Water  ] St Lucie Inlet station
09:16:46 INFO: [Water  ] Redfish Pass station
09:16:50 INFO: [Land   ] fau_lobo_1
09:16:58 INFO: [Water  ] CORMP ILM3, Wrightsville Beach Offshore, NC
09:17:01 INFO: [Land   ] Fort Myers station
09:17:09 INFO: [Water  ] CAROCOOPS SUN2, Sunset Nearshore, NC
09:17:13 INFO: [Water  ] CORMP ILM2, Wrightsville Beach Nearshore, NC
09:17:17 INFO: [Land   ] Bing's Landing station
09:17:24 INFO: [Land   ] 2nd Ave North Pier, Myrtle Beach, SC
09:17:27 INFO: [Water  ] Tarpon Bay station
09:17:31 INFO: [Water  ] CAROCOOPS FRP2, Fripp Nearshore, SC
09:17:34 INFO: [Land   ] Apache Pier, Myrtle Beach, SC
09:18:02 INFO: Finished processing [SABGOM_ARCHIVE]: http://crow.marine.usf.edu:8080/thredds/dodsC/WFS_SWAN_NF_model/USF_Ocean_Circulation_Group_West_Florida_Shelf_Daily_SWAN_Nowcast_Forecast_Wave_Model_Data_best.ncd

09:18:02 INFO: **** Downloading to file 2014-07-07/2014-07-07-COAWST_4.nc *****
09:18:13 INFO: [Land   ] I-295 Bridge, St Johns River, FL
09:18:25 INFO: [Land   ] Red Bay Point, St Johns River, FL
09:18:36 INFO: [Land   ] Tolomato River station
09:18:58 INFO: [Water  ] CAROCOOPS CAP2, Capers Island Nearshore, SC
09:19:21 INFO: [Land   ] Shell Point station
09:19:30 INFO: [Land   ] Cherry Grove Pier, N. Myrtle Beach, SC
09:19:50 INFO: [Water  ] Gulf of Mexico station
09:20:01 INFO: [Land   ] Shell Point
09:20:23 INFO: [Water  ] St Lucie Inlet station
09:20:45 INFO: [Water  ] Redfish Pass station
09:20:56 INFO: [Land   ] fau_lobo_1
09:21:06 INFO: [Water  ] CORMP ILM3, Wrightsville Beach Offshore, NC
09:21:18 INFO: [Land   ] Fort Myers station
09:21:29 INFO: [Water  ] CAROCOOPS SUN2, Sunset Nearshore, NC
09:21:49 INFO: [Water  ] CORMP ILM2, Wrightsville Beach Nearshore, NC
09:22:00 INFO: [Land   ] Bing's Landing station
09:22:20 INFO: [Water  ] 2nd Ave North Pier, Myrtle Beach, SC
09:22:31 INFO: [Water  ] Tarpon Bay station
09:22:41 INFO: [Water  ] CAROCOOPS FRP2, Fripp Nearshore, SC
09:22:51 INFO: [Land   ] Apache Pier, Myrtle Beach, SC
09:23:43 INFO: Finished processing [COAWST_4]: http://crow.marine.usf.edu:8080/thredds/dodsC/WFS_SWAN_NF_model/USF_Ocean_Circulation_Group_West_Florida_Shelf_Daily_SWAN_Nowcast_Forecast_Wave_Model_Data_best.ncd

09:23:43 INFO: **** Downloading to file 2014-07-07/2014-07-07-ESPRESSO.nc *****
09:23:43 INFO: [No Data] I-295 Bridge, St Johns River, FL
09:23:43 INFO: [No Data] Red Bay Point, St Johns River, FL
09:23:43 INFO: [No Data] Tolomato River station
09:23:43 INFO: [No Data] CAROCOOPS CAP2, Capers Island Nearshore, SC
09:23:43 INFO: [No Data] Shell Point station
09:23:43 INFO: [No Data] Cherry Grove Pier, N. Myrtle Beach, SC
09:23:43 INFO: [No Data] Gulf of Mexico station
09:23:43 INFO: [No Data] Shell Point
09:23:43 INFO: [No Data] St Lucie Inlet station
09:23:43 INFO: [No Data] Redfish Pass station
09:23:43 INFO: [No Data] fau_lobo_1
09:23:43 INFO: [No Data] CORMP ILM3, Wrightsville Beach Offshore, NC
09:23:43 INFO: [No Data] Fort Myers station
09:23:43 INFO: [No Data] CAROCOOPS SUN2, Sunset Nearshore, NC
09:23:43 INFO: [No Data] CORMP ILM2, Wrightsville Beach Nearshore, NC
09:23:43 INFO: [No Data] Bing's Landing station
09:23:43 INFO: [No Data] 2nd Ave North Pier, Myrtle Beach, SC
09:23:43 INFO: [No Data] Tarpon Bay station
09:23:43 INFO: [No Data] CAROCOOPS FRP2, Fripp Nearshore, SC
09:23:43 INFO: [No Data] Apache Pier, Myrtle Beach, SC
09:23:43 INFO: Finished processing [ESPRESSO]: http://crow.marine.usf.edu:8080/thredds/dodsC/WFS_SWAN_NF_model/USF_Ocean_Circulation_Group_West_Florida_Shelf_Daily_SWAN_Nowcast_Forecast_Wave_Model_Data_best.ncd

09:23:43 INFO: ****** Downloading to file 2014-07-07/2014-07-07-HYCOM.nc ******
09:23:53 INFO: [Land   ] I-295 Bridge, St Johns River, FL
09:23:59 INFO: [Land   ] Red Bay Point, St Johns River, FL
09:24:04 INFO: [Land   ] Tolomato River station
09:24:18 INFO: [Water  ] CAROCOOPS CAP2, Capers Island Nearshore, SC
09:24:22 INFO: [Land   ] Shell Point station
09:24:26 INFO: [Land   ] Cherry Grove Pier, N. Myrtle Beach, SC
09:24:30 INFO: [Land   ] Gulf of Mexico station
09:24:35 INFO: [Land   ] Shell Point
09:24:40 INFO: [Land   ] St Lucie Inlet station
09:24:45 INFO: [Land   ] Redfish Pass station
09:24:50 INFO: [Land   ] fau_lobo_1
09:24:59 INFO: [Water  ] CORMP ILM3, Wrightsville Beach Offshore, NC
09:24:59 INFO: [No Data] Fort Myers station
09:25:04 INFO: [Water  ] CAROCOOPS SUN2, Sunset Nearshore, NC
09:25:04 INFO: [No Data] CORMP ILM2, Wrightsville Beach Nearshore, NC
09:25:11 INFO: [Land   ] Bing's Landing station
09:25:20 INFO: [Land   ] 2nd Ave North Pier, Myrtle Beach, SC
09:25:27 INFO: [Land   ] Tarpon Bay station
09:25:39 INFO: [Water  ] CAROCOOPS FRP2, Fripp Nearshore, SC
09:25:45 INFO: [Land   ] Apache Pier, Myrtle Beach, SC
09:25:45 INFO: Finished processing [HYCOM]: http://crow.marine.usf.edu:8080/thredds/dodsC/WFS_SWAN_NF_model/USF_Ocean_Circulation_Group_West_Florida_Shelf_Daily_SWAN_Nowcast_Forecast_Wave_Model_Data_best.ncd

09:25:46 INFO: 38.81 minutes
09:25:46 INFO: EOF
