09:42:27 INFO: ************Saving data inside directory 2014-07-07*************
09:42:27 INFO: *********************** Run information ************************
09:42:27 INFO: Run date: 2015-03-23 00:42:27
09:42:27 INFO: Download start: 2014-06-30 12:00:00
09:42:27 INFO: Download stop: 2014-07-07 12:00:00
09:42:27 INFO: Bounding box: -87.40, 24.25,-74.70, 36.70
09:42:27 INFO: *********************** Software version ***********************
09:42:27 INFO: Iris version: 1.8.0-DEV
09:42:27 INFO: owslib version: 0.8.13
09:42:27 INFO: pyoos version: 0.6.2
09:42:31 INFO: ********************* Catalog information **********************
09:42:31 INFO: URL: http://www.ngdc.noaa.gov/geoportal/csw
09:42:31 INFO: CSW version: 2.0.2
09:42:31 INFO: Number of datasets available: 29
09:42:31 INFO: ***************************** CSW ******************************
09:42:31 INFO: USF FVCOM - Nowcast Aggregation
09:42:31 INFO: ROMS/TOMS 3.0 - New Floria Shelf Application
09:42:31 INFO: ROMS/TOMS 3.0 - South-Atlantic Bight and Gulf of Mexico
09:42:31 INFO: COAWST Forecast System : USGS : US East Coast and Gulf of Mexico (Experimental)
09:42:31 INFO: ROMS ESPRESSO Real-Time Operational IS4DVAR Forecast System Version 2 (NEW) 2013-present FMRC History (Best)
09:42:31 INFO: HYbrid Coordinate Ocean Model (HYCOM): Global
09:42:31 INFO: National Data Buoy Center SOS
09:42:31 INFO: Aquarius Level 3 Sea Surface Salinity Standard Mapped Image Daily Data V3.0
09:42:31 INFO: Aquarius Level 3 Sea Surface Salinity Standard Mapped Image Monthly Data V3.0
09:42:31 INFO: Aquarius Level 3 Sea Surface Salinity Standard Mapped Image Weekly Data V3.0
09:42:31 INFO: carocoops.cap2.buoy
09:42:31 INFO: carocoops.cap2.buoy
09:42:31 INFO: carocoops.frp2.buoy
09:42:31 INFO: carocoops.frp2.buoy
09:42:31 INFO: carocoops.sun2.buoy
09:42:31 INFO: usf.c10.mcat
09:42:31 INFO: fau.lobo.1
09:42:31 INFO: fldep.bingslanding.
09:42:31 INFO: fldep.stlucieinlet.
09:42:31 INFO: fldep.tolomatoriver.
09:42:31 INFO: lbhmc.2ndave.pier
09:42:31 INFO: lbhmc.apachepier.pier
09:42:31 INFO: lbhmc.cherrygrove.pier
09:42:31 INFO: sccf.fortmyers.wq
09:42:31 INFO: sccf.gulfofmexico.wq
09:42:31 INFO: sccf.redfishpass.wq
09:42:31 INFO: sccf.shellpoint.wq
09:42:31 INFO: sccf.tarponbay.wq
09:42:31 INFO: usf.shp.ngwlms
09:42:31 INFO: ***************************** DAP ******************************
09:42:31 INFO: http://crow.marine.usf.edu:8080/thredds/dodsC/FVCOM-Nowcast-Agg.nc.html
09:42:31 INFO: http://crow.marine.usf.edu:8080/thredds/dodsC/WFS_ROMS_NF_model/USF_Ocean_Circulation_Group_West_Florida_Shelf_Daily_ROMS_Nowcast_Forecast_Model_Data_best.ncd.html
09:42:31 INFO: http://geoport.whoi.edu/thredds/dodsC/coawst_4/use/fmrc/coawst_4_use_best.ncd.html
09:42:31 INFO: http://omgsrv1.meas.ncsu.edu:8080/thredds/dodsC/fmrc/sabgom/SABGOM_Forecast_Model_Run_Collection_best.ncd.html
09:42:31 INFO: http://oos.soest.hawaii.edu/thredds/dodsC/pacioos/hycom/global.html
09:42:31 INFO: http://tds.marine.rutgers.edu/thredds/dodsC/roms/espresso/2013_da/his_Best/ESPRESSO_Real-Time_v2_History_Best_Available_best.ncd.html
09:42:31 INFO: http://tds.secoora.org/thredds/dodsC/carocoops.cap2.buoy.nc.html
09:42:31 INFO: http://tds.secoora.org/thredds/dodsC/carocoops.cap2.buoy_archive.nc.html
09:42:31 INFO: http://tds.secoora.org/thredds/dodsC/carocoops.frp2.buoy.nc.html
09:42:31 INFO: http://tds.secoora.org/thredds/dodsC/carocoops.frp2.buoy_archive.nc.html
09:42:31 INFO: http://tds.secoora.org/thredds/dodsC/carocoops.sun2.buoy_archive.nc.html
09:42:31 INFO: http://tds.secoora.org/thredds/dodsC/fau.lobo.1.nc.html
09:42:31 INFO: http://tds.secoora.org/thredds/dodsC/fldep.bingslanding..nc.html
09:42:31 INFO: http://tds.secoora.org/thredds/dodsC/fldep.stlucieinlet..nc.html
09:42:31 INFO: http://tds.secoora.org/thredds/dodsC/fldep.tolomatoriver..nc.html
09:42:31 INFO: http://tds.secoora.org/thredds/dodsC/lbhmc.2ndave.pier.nc.html
09:42:31 INFO: http://tds.secoora.org/thredds/dodsC/lbhmc.apachepier.pier.nc.html
09:42:31 INFO: http://tds.secoora.org/thredds/dodsC/lbhmc.cherrygrove.pier.nc.html
09:42:31 INFO: http://tds.secoora.org/thredds/dodsC/sccf.fortmyers.wq.nc.html
09:42:31 INFO: http://tds.secoora.org/thredds/dodsC/sccf.gulfofmexico.wq.nc.html
09:42:31 INFO: http://tds.secoora.org/thredds/dodsC/sccf.redfishpass.wq.nc.html
09:42:31 INFO: http://tds.secoora.org/thredds/dodsC/sccf.shellpoint.wq.nc.html
09:42:31 INFO: http://tds.secoora.org/thredds/dodsC/sccf.tarponbay.wq.nc.html
09:42:31 INFO: http://tds.secoora.org/thredds/dodsC/usf.c10.mcat.nc.html
09:42:31 INFO: http://tds.secoora.org/thredds/dodsC/usf.shp.ngwlms.nc.html
09:42:31 INFO: http://thredds.axiomalaska.com/thredds/dodsC/Aquarius_V3_SSS_Daily.nc.html
09:42:31 INFO: http://thredds.axiomalaska.com/thredds/dodsC/Aquarius_V3_SSS_Monthly.nc.html
09:42:31 INFO: http://thredds.axiomalaska.com/thredds/dodsC/Aquarius_V3_SSS_Weekly.nc.html
09:42:31 INFO: ***************************** SOS ******************************
09:42:31 INFO: http://sdf.ndbc.noaa.gov/sos/server.php?service=SOS&request=GetCapabilities&acceptVersions=1.0.0
09:42:31 INFO: http://tds.secoora.org/thredds/sos/carocoops.cap2.buoy.nc?service=SOS&version=1.0.0&request=GetCapabilities
09:42:31 INFO: http://tds.secoora.org/thredds/sos/carocoops.cap2.buoy_archive.nc?service=SOS&version=1.0.0&request=GetCapabilities
09:42:31 INFO: http://tds.secoora.org/thredds/sos/carocoops.frp2.buoy.nc?service=SOS&version=1.0.0&request=GetCapabilities
09:42:31 INFO: http://tds.secoora.org/thredds/sos/carocoops.frp2.buoy_archive.nc?service=SOS&version=1.0.0&request=GetCapabilities
09:42:31 INFO: http://tds.secoora.org/thredds/sos/carocoops.sun2.buoy_archive.nc?service=SOS&version=1.0.0&request=GetCapabilities
09:42:31 INFO: http://tds.secoora.org/thredds/sos/fau.lobo.1.nc?service=SOS&version=1.0.0&request=GetCapabilities
09:42:31 INFO: http://tds.secoora.org/thredds/sos/fldep.bingslanding..nc?service=SOS&version=1.0.0&request=GetCapabilities
09:42:31 INFO: http://tds.secoora.org/thredds/sos/fldep.stlucieinlet..nc?service=SOS&version=1.0.0&request=GetCapabilities
09:42:31 INFO: http://tds.secoora.org/thredds/sos/fldep.tolomatoriver..nc?service=SOS&version=1.0.0&request=GetCapabilities
09:42:31 INFO: http://tds.secoora.org/thredds/sos/lbhmc.2ndave.pier.nc?service=SOS&version=1.0.0&request=GetCapabilities
09:42:31 INFO: http://tds.secoora.org/thredds/sos/lbhmc.apachepier.pier.nc?service=SOS&version=1.0.0&request=GetCapabilities
09:42:31 INFO: http://tds.secoora.org/thredds/sos/lbhmc.cherrygrove.pier.nc?service=SOS&version=1.0.0&request=GetCapabilities
09:42:31 INFO: http://tds.secoora.org/thredds/sos/sccf.fortmyers.wq.nc?service=SOS&version=1.0.0&request=GetCapabilities
09:42:31 INFO: http://tds.secoora.org/thredds/sos/sccf.gulfofmexico.wq.nc?service=SOS&version=1.0.0&request=GetCapabilities
09:42:31 INFO: http://tds.secoora.org/thredds/sos/sccf.redfishpass.wq.nc?service=SOS&version=1.0.0&request=GetCapabilities
09:42:31 INFO: http://tds.secoora.org/thredds/sos/sccf.shellpoint.wq.nc?service=SOS&version=1.0.0&request=GetCapabilities
09:42:31 INFO: http://tds.secoora.org/thredds/sos/sccf.tarponbay.wq.nc?service=SOS&version=1.0.0&request=GetCapabilities
09:42:31 INFO: http://tds.secoora.org/thredds/sos/usf.c10.mcat.nc?service=SOS&version=1.0.0&request=GetCapabilities
09:42:31 INFO: http://tds.secoora.org/thredds/sos/usf.shp.ngwlms.nc?service=SOS&version=1.0.0&request=GetCapabilities
09:42:31 WARNING: SABGOM_ARCHIVE not in the NGDC csw
09:42:31 WARNING: USEAST not in the NGDC csw
09:42:31 WARNING: USF_SWAN not in the NGDC csw
09:42:37 WARNING: Cannot get cube for: http://129.252.139.124/thredds/dodsC/fit.sispnj.met.nc
Cannot find ['sea_water_salinity', 'sea_surface_salinity', 'sea_water_absolute_salinity', 'sea_water_practical_salinity'] in http://129.252.139.124/thredds/dodsC/fit.sispnj.met.nc.
09:42:42 WARNING: Cannot get cube for: http://129.252.139.124/thredds/dodsC/usf.nfb.ngwlms.nc
Cannot find ['sea_water_salinity', 'sea_surface_salinity', 'sea_water_absolute_salinity', 'sea_water_practical_salinity'] in http://129.252.139.124/thredds/dodsC/usf.nfb.ngwlms.nc.
09:42:47 WARNING: Cannot get cube for: http://129.252.139.124/thredds/dodsC/usf.tas.ngwlms.nc
Cannot find ['sea_water_salinity', 'sea_surface_salinity', 'sea_water_absolute_salinity', 'sea_water_practical_salinity'] in http://129.252.139.124/thredds/dodsC/usf.tas.ngwlms.nc.
09:42:51 WARNING: Cannot get cube for: http://129.252.139.124/thredds/dodsC/usf.apk.ngwlms.nc
Cannot find ['sea_water_salinity', 'sea_surface_salinity', 'sea_water_absolute_salinity', 'sea_water_practical_salinity'] in http://129.252.139.124/thredds/dodsC/usf.apk.ngwlms.nc.
09:42:55 WARNING: Cannot get cube for: http://129.252.139.124/thredds/dodsC/usf.c21.weatherpak.nc
Cannot find ['sea_water_salinity', 'sea_surface_salinity', 'sea_water_absolute_salinity', 'sea_water_practical_salinity'] in http://129.252.139.124/thredds/dodsC/usf.c21.weatherpak.nc.
09:43:04 WARNING: Cannot get cube for: http://129.252.139.124/thredds/dodsC/usf.bcp.ngwlms.nc
Cannot find ['sea_water_salinity', 'sea_surface_salinity', 'sea_water_absolute_salinity', 'sea_water_practical_salinity'] in http://129.252.139.124/thredds/dodsC/usf.bcp.ngwlms.nc.
09:43:08 WARNING: Cannot get cube for: http://129.252.139.124/thredds/dodsC/usf.fhp.ngwlms.nc
Cannot find ['sea_water_salinity', 'sea_surface_salinity', 'sea_water_absolute_salinity', 'sea_water_practical_salinity'] in http://129.252.139.124/thredds/dodsC/usf.fhp.ngwlms.nc.
09:43:11 WARNING: Cannot get cube for: http://129.252.139.124/thredds/dodsC/usf.c10.mcat.nc
istart must be different from istop! Got istart 48233 and  istop 48233
09:43:24 WARNING: Cannot get cube for: http://129.252.139.124/thredds/dodsC/c10_salinity_water_temp.nc
'Expected to find exactly 1  coordinate, but found none.'
09:43:36 WARNING: Cannot get cube for: http://129.252.139.124/thredds/dodsC/QC_C10_Temp_full.nc
Cannot find ['sea_water_salinity', 'sea_surface_salinity', 'sea_water_absolute_salinity', 'sea_water_practical_salinity'] in http://129.252.139.124/thredds/dodsC/QC_C10_Temp_full.nc.
09:43:46 WARNING: Cannot get cube for: http://129.252.139.124/thredds/dodsC/QC_C10_Sal_full.nc
'Expected to find exactly 1  coordinate, but found none.'
09:43:49 WARNING: Cannot get cube for: http://129.252.139.124/thredds/dodsC/usf.c12.mcat.nc
istart must be different from istop! Got istart 18711 and  istop 18711
09:43:53 WARNING: Cannot get cube for: http://129.252.139.124/thredds/dodsC/usf.c13.mcat.nc
istart must be different from istop! Got istart 18099 and  istop 18099
09:43:57 WARNING: Cannot get cube for: http://129.252.139.124/thredds/dodsC/usf.c10.mcat_2011.nc
istart must be different from istop! Got istart 26303 and  istop 26303
09:44:01 WARNING: Cannot get cube for: http://129.252.139.124/thredds/dodsC/usf.c12.mcat_2011.nc
istart must be different from istop! Got istart 26303 and  istop 26303
09:44:05 WARNING: Cannot get cube for: http://129.252.139.124/thredds/dodsC/usf.c13.mcat_2011.nc
istart must be different from istop! Got istart 26303 and  istop 26303
09:44:13 WARNING: Cannot get cube for: http://129.252.139.124/thredds/dodsC/carocoops.frp2.buoy.nc
Cannot find ['sea_water_salinity', 'sea_surface_salinity', 'sea_water_absolute_salinity', 'sea_water_practical_salinity'] in http://129.252.139.124/thredds/dodsC/carocoops.frp2.buoy.nc.
09:44:18 WARNING: Cannot get cube for: http://129.252.139.124/thredds/dodsC/carocoops.cap2.buoy.nc
Cannot find ['sea_water_salinity', 'sea_surface_salinity', 'sea_water_absolute_salinity', 'sea_water_practical_salinity'] in http://129.252.139.124/thredds/dodsC/carocoops.cap2.buoy.nc.
09:44:38 WARNING: Cannot get cube for: http://129.252.139.124/thredds/dodsC/cormp.ilm1.buoy.nc
istart must be different from istop! Got istart 1443 and  istop 1443
09:44:47 WARNING: Cannot get cube for: http://129.252.139.124/thredds/dodsC/cormp.lej3.buoy.nc
istart must be different from istop! Got istart 91490 and  istop 91490
09:45:21 WARNING: Cannot get cube for: http://129.252.139.124/thredds/dodsC/fldep.poncedeleonsouth..nc
Cannot find ['sea_water_salinity', 'sea_surface_salinity', 'sea_water_absolute_salinity', 'sea_water_practical_salinity'] in http://129.252.139.124/thredds/dodsC/fldep.poncedeleonsouth..nc.
09:45:31 WARNING: Cannot get cube for: http://129.252.139.124/thredds/dodsC/fldep.redbaypoint..nc
Cannot find ['sea_water_salinity', 'sea_surface_salinity', 'sea_water_absolute_salinity', 'sea_water_practical_salinity'] in http://129.252.139.124/thredds/dodsC/fldep.redbaypoint..nc.
09:45:45 WARNING: Cannot get cube for: http://129.252.139.124/thredds/dodsC/fldep.naplesbay..nc
Cannot find ['sea_water_salinity', 'sea_surface_salinity', 'sea_water_absolute_salinity', 'sea_water_practical_salinity'] in http://129.252.139.124/thredds/dodsC/fldep.naplesbay..nc.
09:45:52 WARNING: Cannot get cube for: http://129.252.139.124/thredds/dodsC/fldep.gordonriverinlet..nc
Cannot find ['sea_water_salinity', 'sea_surface_salinity', 'sea_water_absolute_salinity', 'sea_water_practical_salinity'] in http://129.252.139.124/thredds/dodsC/fldep.gordonriverinlet..nc.
09:46:00 WARNING: Cannot get cube for: http://129.252.139.124/thredds/dodsC/fldep.melbourne..nc
Cannot find ['sea_water_salinity', 'sea_surface_salinity', 'sea_water_absolute_salinity', 'sea_water_practical_salinity'] in http://129.252.139.124/thredds/dodsC/fldep.melbourne..nc.
09:46:07 WARNING: Cannot get cube for: http://129.252.139.124/thredds/dodsC/fldep.binneydock..nc
Cannot find ['sea_water_salinity', 'sea_surface_salinity', 'sea_water_absolute_salinity', 'sea_water_practical_salinity'] in http://129.252.139.124/thredds/dodsC/fldep.binneydock..nc.
09:46:14 WARNING: Cannot get cube for: http://129.252.139.124/thredds/dodsC/fldep.verobeach..nc
Cannot find ['sea_water_salinity', 'sea_surface_salinity', 'sea_water_absolute_salinity', 'sea_water_practical_salinity'] in http://129.252.139.124/thredds/dodsC/fldep.verobeach..nc.
09:46:36 WARNING: Cannot get cube for: http://129.252.139.124/thredds/dodsC/enp.wiwf1.met.nc
Cannot find ['sea_water_salinity', 'sea_surface_salinity', 'sea_water_absolute_salinity', 'sea_water_practical_salinity'] in http://129.252.139.124/thredds/dodsC/enp.wiwf1.met.nc.
09:46:39 WARNING: Cannot get cube for: http://129.252.139.124/thredds/dodsC/enp.lbrf1.met.nc
Cannot find ['sea_water_salinity', 'sea_surface_salinity', 'sea_water_absolute_salinity', 'sea_water_practical_salinity'] in http://129.252.139.124/thredds/dodsC/enp.lbrf1.met.nc.
09:46:43 WARNING: Cannot get cube for: http://129.252.139.124/thredds/dodsC/enp.bobf1.met.nc
Cannot find ['sea_water_salinity', 'sea_surface_salinity', 'sea_water_absolute_salinity', 'sea_water_practical_salinity'] in http://129.252.139.124/thredds/dodsC/enp.bobf1.met.nc.
09:46:46 WARNING: Cannot get cube for: http://129.252.139.124/thredds/dodsC/enp.trrf1.met.nc
Cannot find ['sea_water_salinity', 'sea_surface_salinity', 'sea_water_absolute_salinity', 'sea_water_practical_salinity'] in http://129.252.139.124/thredds/dodsC/enp.trrf1.met.nc.
09:46:50 WARNING: Cannot get cube for: http://129.252.139.124/thredds/dodsC/enp.wwef1.met.nc
Cannot find ['sea_water_salinity', 'sea_surface_salinity', 'sea_water_absolute_salinity', 'sea_water_practical_salinity'] in http://129.252.139.124/thredds/dodsC/enp.wwef1.met.nc.
09:46:53 WARNING: Cannot get cube for: http://129.252.139.124/thredds/dodsC/enp.lrif1.met.nc
Cannot find ['sea_water_salinity', 'sea_surface_salinity', 'sea_water_absolute_salinity', 'sea_water_practical_salinity'] in http://129.252.139.124/thredds/dodsC/enp.lrif1.met.nc.
09:46:58 WARNING: Cannot get cube for: http://129.252.139.124/thredds/dodsC/enp.bwsf1.met.nc
Cannot find ['sea_water_salinity', 'sea_surface_salinity', 'sea_water_absolute_salinity', 'sea_water_practical_salinity'] in http://129.252.139.124/thredds/dodsC/enp.bwsf1.met.nc.
09:47:01 WARNING: Cannot get cube for: http://129.252.139.124/thredds/dodsC/enp.pkyf1.met.nc
Cannot find ['sea_water_salinity', 'sea_surface_salinity', 'sea_water_absolute_salinity', 'sea_water_practical_salinity'] in http://129.252.139.124/thredds/dodsC/enp.pkyf1.met.nc.
09:47:05 WARNING: Cannot get cube for: http://129.252.139.124/thredds/dodsC/enp.lmdf1.met.nc
Cannot find ['sea_water_salinity', 'sea_surface_salinity', 'sea_water_absolute_salinity', 'sea_water_practical_salinity'] in http://129.252.139.124/thredds/dodsC/enp.lmdf1.met.nc.
09:47:08 WARNING: Cannot get cube for: http://129.252.139.124/thredds/dodsC/enp.cnbf1.met.nc
Cannot find ['sea_water_salinity', 'sea_surface_salinity', 'sea_water_absolute_salinity', 'sea_water_practical_salinity'] in http://129.252.139.124/thredds/dodsC/enp.cnbf1.met.nc.
09:47:12 WARNING: Cannot get cube for: http://129.252.139.124/thredds/dodsC/enp.hcef1.met.nc
Cannot find ['sea_water_salinity', 'sea_surface_salinity', 'sea_water_absolute_salinity', 'sea_water_practical_salinity'] in http://129.252.139.124/thredds/dodsC/enp.hcef1.met.nc.
09:47:15 WARNING: Cannot get cube for: http://129.252.139.124/thredds/dodsC/enp.jkyf1.met.nc
Cannot find ['sea_water_salinity', 'sea_surface_salinity', 'sea_water_absolute_salinity', 'sea_water_practical_salinity'] in http://129.252.139.124/thredds/dodsC/enp.jkyf1.met.nc.
09:47:19 WARNING: Cannot get cube for: http://129.252.139.124/thredds/dodsC/enp.wrbf1.met.nc
Cannot find ['sea_water_salinity', 'sea_surface_salinity', 'sea_water_absolute_salinity', 'sea_water_practical_salinity'] in http://129.252.139.124/thredds/dodsC/enp.wrbf1.met.nc.
09:47:22 WARNING: Cannot get cube for: http://129.252.139.124/thredds/dodsC/enp.gbif1.met.nc
Cannot find ['sea_water_salinity', 'sea_surface_salinity', 'sea_water_absolute_salinity', 'sea_water_practical_salinity'] in http://129.252.139.124/thredds/dodsC/enp.gbif1.met.nc.
09:47:27 WARNING: Cannot get cube for: http://129.252.139.124/thredds/dodsC/enp.ppta1.met.nc
Cannot find ['sea_water_salinity', 'sea_surface_salinity', 'sea_water_absolute_salinity', 'sea_water_practical_salinity'] in http://129.252.139.124/thredds/dodsC/enp.ppta1.met.nc.
09:47:30 WARNING: Cannot get cube for: http://129.252.139.124/thredds/dodsC/enp.bdvf1.met.nc
Cannot find ['sea_water_salinity', 'sea_surface_salinity', 'sea_water_absolute_salinity', 'sea_water_practical_salinity'] in http://129.252.139.124/thredds/dodsC/enp.bdvf1.met.nc.
09:47:33 WARNING: Cannot get cube for: http://129.252.139.124/thredds/dodsC/enp.lrkf1.met.nc
Cannot find ['sea_water_salinity', 'sea_surface_salinity', 'sea_water_absolute_salinity', 'sea_water_practical_salinity'] in http://129.252.139.124/thredds/dodsC/enp.lrkf1.met.nc.
09:47:37 WARNING: Cannot get cube for: http://129.252.139.124/thredds/dodsC/enp.bnkf1.met.nc
Cannot find ['sea_water_salinity', 'sea_surface_salinity', 'sea_water_absolute_salinity', 'sea_water_practical_salinity'] in http://129.252.139.124/thredds/dodsC/enp.bnkf1.met.nc.
09:47:41 WARNING: Cannot get cube for: http://129.252.139.124/thredds/dodsC/enp.gbtf1.met.nc
Cannot find ['sea_water_salinity', 'sea_surface_salinity', 'sea_water_absolute_salinity', 'sea_water_practical_salinity'] in http://129.252.139.124/thredds/dodsC/enp.gbtf1.met.nc.
09:47:44 WARNING: Cannot get cube for: http://129.252.139.124/thredds/dodsC/enp.tcvf1.met.nc
Cannot find ['sea_water_salinity', 'sea_surface_salinity', 'sea_water_absolute_salinity', 'sea_water_practical_salinity'] in http://129.252.139.124/thredds/dodsC/enp.tcvf1.met.nc.
09:47:48 WARNING: Cannot get cube for: http://129.252.139.124/thredds/dodsC/enp.canf1.met.nc
Cannot find ['sea_water_salinity', 'sea_surface_salinity', 'sea_water_absolute_salinity', 'sea_water_practical_salinity'] in http://129.252.139.124/thredds/dodsC/enp.canf1.met.nc.
09:47:51 WARNING: Cannot get cube for: http://129.252.139.124/thredds/dodsC/enp.lbsf1.met.nc
Cannot find ['sea_water_salinity', 'sea_surface_salinity', 'sea_water_absolute_salinity', 'sea_water_practical_salinity'] in http://129.252.139.124/thredds/dodsC/enp.lbsf1.met.nc.
09:47:55 WARNING: Cannot get cube for: http://129.252.139.124/thredds/dodsC/enp.mukf1.met.nc
Cannot find ['sea_water_salinity', 'sea_surface_salinity', 'sea_water_absolute_salinity', 'sea_water_practical_salinity'] in http://129.252.139.124/thredds/dodsC/enp.mukf1.met.nc.
09:47:58 WARNING: Cannot get cube for: http://129.252.139.124/thredds/dodsC/enp.dkkf1.met.nc
Cannot find ['sea_water_salinity', 'sea_surface_salinity', 'sea_water_absolute_salinity', 'sea_water_practical_salinity'] in http://129.252.139.124/thredds/dodsC/enp.dkkf1.met.nc.
09:48:02 WARNING: Cannot get cube for: http://129.252.139.124/thredds/dodsC/enp.cwaf1.met.nc
Cannot find ['sea_water_salinity', 'sea_surface_salinity', 'sea_water_absolute_salinity', 'sea_water_practical_salinity'] in http://129.252.139.124/thredds/dodsC/enp.cwaf1.met.nc.
09:48:19 INFO: ********************* Collector offerings **********************
09:48:19 INFO: NOAA.NOS.CO-OPS SOS: 1037 offerings
09:48:20 INFO: SOS URL request: http://opendap.co-ops.nos.noaa.gov/ioos-dif-sos/SOS?eventTime=2014-06-30T12%3A00%3A00Z&service=SOS&offering=urn%3Aioos%3Anetwork%3ANOAA.NOS.CO-OPS%3AMetActive&request=GetObservation&version=1.0.0&responseFormat=text%2Fcsv&featureOfInterest=BBOX%3A-87.4%2C24.25%2C-74.7%2C36.7&observedProperty=salinity
09:49:22 INFO: ************************* Observations *************************
09:49:22 INFO: **** Downloading to file 2014-07-07/2014-07-07-OBS_DATA.nc *****
09:49:29 INFO: ********************* SECOORA Observations *********************
09:49:29 INFO:  Downloading to file 2014-07-07/2014-07-07-SECOORA_OBS_DATA.nc *
09:49:29 INFO: **************************** Models ****************************
09:49:29 INFO: 
[Reading url 1/31]: http://crow.marine.usf.edu:8080/thredds/dodsC/FVCOM-Nowcast-Agg.nc
09:54:25 WARNING: Cannot get cube for: http://crow.marine.usf.edu:8080/thredds/dodsC/FVCOM-Nowcast-Agg.nc
Timed out!
09:54:25 INFO: 
[Reading url 2/31]: http://crow.marine.usf.edu:8080/thredds/dodsC/WFS_ROMS_NF_model/USF_Ocean_Circulation_Group_West_Florida_Shelf_Daily_ROMS_Nowcast_Forecast_Model_Data_best.ncd
09:54:34 INFO: 
[Reading url 3/31]: http://geoport.whoi.edu/thredds/dodsC/coawst_4/use/fmrc/coawst_4_use_best.ncd
09:56:41 WARNING: Cannot get cube for: http://geoport.whoi.edu/thredds/dodsC/coawst_4/use/fmrc/coawst_4_use_best.ncd
NetCDF: I/O failure
09:56:41 INFO: 
[Reading url 4/31]: http://omgarch1.meas.ncsu.edu:8080/thredds/dodsC/fmrc/sabgom/SABGOM_Forecast_Model_Run_Collection_best.ncd
10:02:27 WARNING: Cannot get cube for: http://omgarch1.meas.ncsu.edu:8080/thredds/dodsC/fmrc/sabgom/SABGOM_Forecast_Model_Run_Collection_best.ncd
Timed out!
10:02:27 INFO: 
[Reading url 5/31]: http://oos.soest.hawaii.edu/thredds/dodsC/pacioos/hycom/global
10:06:17 WARNING: Cannot get cube for: http://oos.soest.hawaii.edu/thredds/dodsC/pacioos/hycom/global
NetCDF: DAP server error
10:06:17 INFO: 
[Reading url 6/31]: http://tds.marine.rutgers.edu/thredds/dodsC/roms/espresso/2013_da/his_Best/ESPRESSO_Real-Time_v2_History_Best_Available_best.ncd
10:07:33 INFO: 
[Reading url 7/31]: http://tds.secoora.org/thredds/dodsC/carocoops.cap2.buoy.nc
10:07:37 WARNING: Cannot get cube for: http://tds.secoora.org/thredds/dodsC/carocoops.cap2.buoy.nc
Cannot find ['sea_water_salinity', 'sea_surface_salinity', 'sea_water_absolute_salinity', 'sea_water_practical_salinity'] in http://tds.secoora.org/thredds/dodsC/carocoops.cap2.buoy.nc.
10:07:37 INFO: 
[Reading url 8/31]: http://tds.secoora.org/thredds/dodsC/carocoops.cap2.buoy_archive.nc
10:07:40 WARNING: [Not model data]: http://tds.secoora.org/thredds/dodsC/carocoops.cap2.buoy_archive.nc
10:07:40 INFO: 
[Reading url 9/31]: http://tds.secoora.org/thredds/dodsC/carocoops.frp2.buoy.nc
10:07:44 WARNING: Cannot get cube for: http://tds.secoora.org/thredds/dodsC/carocoops.frp2.buoy.nc
Cannot find ['sea_water_salinity', 'sea_surface_salinity', 'sea_water_absolute_salinity', 'sea_water_practical_salinity'] in http://tds.secoora.org/thredds/dodsC/carocoops.frp2.buoy.nc.
10:07:44 INFO: 
[Reading url 10/31]: http://tds.secoora.org/thredds/dodsC/carocoops.frp2.buoy_archive.nc
10:07:47 WARNING: [Not model data]: http://tds.secoora.org/thredds/dodsC/carocoops.frp2.buoy_archive.nc
10:07:47 INFO: 
[Reading url 11/31]: http://tds.secoora.org/thredds/dodsC/carocoops.sun2.buoy_archive.nc
10:07:52 WARNING: [Not model data]: http://tds.secoora.org/thredds/dodsC/carocoops.sun2.buoy_archive.nc
10:07:52 INFO: 
[Reading url 12/31]: http://tds.secoora.org/thredds/dodsC/fau.lobo.1.nc
10:08:02 WARNING: [Not model data]: http://tds.secoora.org/thredds/dodsC/fau.lobo.1.nc
10:08:02 INFO: 
[Reading url 13/31]: http://tds.secoora.org/thredds/dodsC/fldep.bingslanding..nc
10:08:07 WARNING: [Not model data]: http://tds.secoora.org/thredds/dodsC/fldep.bingslanding..nc
10:08:07 INFO: 
[Reading url 14/31]: http://tds.secoora.org/thredds/dodsC/fldep.stlucieinlet..nc
10:08:13 WARNING: Cannot get cube for: http://tds.secoora.org/thredds/dodsC/fldep.stlucieinlet..nc
> 1 cube found!  Expected just one.
 [<iris 'Cube' of sea_water_salinity / (1e-3) (-- : 83340)>, <iris 'Cube' of sea_water_salinity / (1e-3) (-- : 83340)>]
10:08:13 INFO: 
[Reading url 15/31]: http://tds.secoora.org/thredds/dodsC/fldep.tolomatoriver..nc
10:08:18 WARNING: [Not model data]: http://tds.secoora.org/thredds/dodsC/fldep.tolomatoriver..nc
10:08:18 INFO: 
[Reading url 16/31]: http://tds.secoora.org/thredds/dodsC/lbhmc.2ndave.pier.nc
10:08:24 WARNING: Cannot get cube for: http://tds.secoora.org/thredds/dodsC/lbhmc.2ndave.pier.nc
> 1 cube found!  Expected just one.
 [<iris 'Cube' of sea_water_salinity / (1e-3) (-- : 70805)>, <iris 'Cube' of sea_water_salinity / (1e-3) (-- : 70805)>]
10:08:24 INFO: 
[Reading url 17/31]: http://tds.secoora.org/thredds/dodsC/lbhmc.apachepier.pier.nc
10:08:28 WARNING: Cannot get cube for: http://tds.secoora.org/thredds/dodsC/lbhmc.apachepier.pier.nc
> 1 cube found!  Expected just one.
 [<iris 'Cube' of sea_water_salinity / (1e-3) (-- : 31387)>, <iris 'Cube' of sea_water_salinity / (1e-3) (-- : 31387)>]
10:08:28 INFO: 
[Reading url 18/31]: http://tds.secoora.org/thredds/dodsC/lbhmc.cherrygrove.pier.nc
10:08:33 WARNING: Cannot get cube for: http://tds.secoora.org/thredds/dodsC/lbhmc.cherrygrove.pier.nc
> 1 cube found!  Expected just one.
 [<iris 'Cube' of sea_water_salinity / (1e-3) (-- : 32767)>, <iris 'Cube' of sea_water_salinity / (1e-3) (-- : 32767)>]
10:08:33 INFO: 
[Reading url 19/31]: http://tds.secoora.org/thredds/dodsC/sccf.fortmyers.wq.nc
10:08:37 WARNING: [Not model data]: http://tds.secoora.org/thredds/dodsC/sccf.fortmyers.wq.nc
10:08:37 INFO: 
[Reading url 20/31]: http://tds.secoora.org/thredds/dodsC/sccf.gulfofmexico.wq.nc
10:08:41 WARNING: [Not model data]: http://tds.secoora.org/thredds/dodsC/sccf.gulfofmexico.wq.nc
10:08:41 INFO: 
[Reading url 21/31]: http://tds.secoora.org/thredds/dodsC/sccf.redfishpass.wq.nc
10:08:45 WARNING: [Not model data]: http://tds.secoora.org/thredds/dodsC/sccf.redfishpass.wq.nc
10:08:45 INFO: 
[Reading url 22/31]: http://tds.secoora.org/thredds/dodsC/sccf.shellpoint.wq.nc
10:08:51 WARNING: [Not model data]: http://tds.secoora.org/thredds/dodsC/sccf.shellpoint.wq.nc
10:08:51 INFO: 
[Reading url 23/31]: http://tds.secoora.org/thredds/dodsC/sccf.tarponbay.wq.nc
10:08:55 WARNING: [Not model data]: http://tds.secoora.org/thredds/dodsC/sccf.tarponbay.wq.nc
10:08:55 INFO: 
[Reading url 24/31]: http://tds.secoora.org/thredds/dodsC/usf.c10.mcat.nc
10:08:58 WARNING: Cannot get cube for: http://tds.secoora.org/thredds/dodsC/usf.c10.mcat.nc
> 1 cube found!  Expected just one.
 [<iris 'Cube' of sea_water_salinity / (1e-3) (time: 48234)>, <iris 'Cube' of sea_water_salinity / (1e-3) (time: 48234)>]
10:08:58 INFO: 
[Reading url 25/31]: http://tds.secoora.org/thredds/dodsC/usf.shp.ngwlms.nc
10:09:02 WARNING: [Not model data]: http://tds.secoora.org/thredds/dodsC/usf.shp.ngwlms.nc
10:09:02 INFO: 
[Reading url 26/31]: http://thredds.axiomalaska.com/thredds/dodsC/Aquarius_V3_SSS_Daily.nc
10:09:11 WARNING: Cannot get cube for: http://thredds.axiomalaska.com/thredds/dodsC/Aquarius_V3_SSS_Daily.nc
istart must be different from istop! Got istart 992 and  istop 992
10:09:11 INFO: 
[Reading url 27/31]: http://thredds.axiomalaska.com/thredds/dodsC/Aquarius_V3_SSS_Monthly.nc
10:09:14 WARNING: Cannot get cube for: http://thredds.axiomalaska.com/thredds/dodsC/Aquarius_V3_SSS_Monthly.nc
istart must be different from istop! Got istart 35 and  istop 35
10:09:14 INFO: 
[Reading url 28/31]: http://thredds.axiomalaska.com/thredds/dodsC/Aquarius_V3_SSS_Weekly.nc
10:09:24 WARNING: Cannot get cube for: http://thredds.axiomalaska.com/thredds/dodsC/Aquarius_V3_SSS_Weekly.nc
istart must be different from istop! Got istart 149 and  istop 149
10:09:24 INFO: 
[Reading url 29/31]: http://omgarch1.meas.ncsu.edu:8080/thredds/dodsC/fmrc/sabgom/SABGOM_Forecast_Model_Run_Collection_best.ncd
10:15:25 WARNING: Cannot get cube for: http://omgarch1.meas.ncsu.edu:8080/thredds/dodsC/fmrc/sabgom/SABGOM_Forecast_Model_Run_Collection_best.ncd
Timed out!
10:15:25 INFO: 
[Reading url 30/31]: http://omgsrv1.meas.ncsu.edu:8080/thredds/dodsC/fmrc/us_east/US_East_Forecast_Model_Run_Collection_best.ncd
10:15:38 WARNING: Cannot get cube for: http://omgsrv1.meas.ncsu.edu:8080/thredds/dodsC/fmrc/us_east/US_East_Forecast_Model_Run_Collection_best.ncd
istart must be different from istop! Got istart 0 and  istop 0
10:15:38 INFO: 
[Reading url 31/31]: http://crow.marine.usf.edu:8080/thredds/dodsC/WFS_SWAN_NF_model/USF_Ocean_Circulation_Group_West_Florida_Shelf_Daily_SWAN_Nowcast_Forecast_Wave_Model_Data_best.ncd
10:15:39 WARNING: Cannot get cube for: http://crow.marine.usf.edu:8080/thredds/dodsC/WFS_SWAN_NF_model/USF_Ocean_Circulation_Group_West_Florida_Shelf_Daily_SWAN_Nowcast_Forecast_Wave_Model_Data_best.ncd
Cannot find ['sea_water_salinity', 'sea_surface_salinity', 'sea_water_absolute_salinity', 'sea_water_practical_salinity'] in http://crow.marine.usf.edu:8080/thredds/dodsC/WFS_SWAN_NF_model/USF_Ocean_Circulation_Group_West_Florida_Shelf_Daily_SWAN_Nowcast_Forecast_Wave_Model_Data_best.ncd.
10:15:39 INFO: **** Downloading to file 2014-07-07/2014-07-07-USF_ROMS.nc *****
10:15:39 INFO: [No Data] Mayport (Bar Pilots Dock), FL
10:15:39 INFO: [No Data] I-295 Bridge, St Johns River, FL
10:15:39 INFO: [No Data] Red Bay Point, St Johns River, FL
10:15:39 INFO: [No Data] Tolomato River station
10:15:43 INFO: [Water  ] Shell Point station
10:15:43 INFO: [No Data] Cherry Grove Pier, N. Myrtle Beach, SC
10:15:44 INFO: [Water  ] Gulf of Mexico station
10:15:48 INFO: [Water  ] Shell Point
10:15:48 INFO: [No Data] St Lucie Inlet station
10:15:49 INFO: [Water  ] Redfish Pass station
10:15:49 INFO: [No Data] fau_lobo_1
10:15:49 INFO: [No Data] CORMP ILM3, Wrightsville Beach Offshore, NC
10:15:49 INFO: [No Data] Fort Myers station
10:15:49 INFO: [No Data] CAROCOOPS SUN2, Sunset Nearshore, NC
10:15:49 INFO: [No Data] CORMP ILM2, Wrightsville Beach Nearshore, NC
10:15:49 INFO: [No Data] Bing&#39;s Landing station
10:15:49 INFO: [No Data] 2nd Ave North Pier, Myrtle Beach, SC
10:15:50 INFO: [Water  ] Tarpon Bay station
10:15:50 INFO: [No Data] Apache Pier, Myrtle Beach, SC
10:15:57 INFO: Finished processing [USF_ROMS]: http://crow.marine.usf.edu:8080/thredds/dodsC/WFS_SWAN_NF_model/USF_Ocean_Circulation_Group_West_Florida_Shelf_Daily_SWAN_Nowcast_Forecast_Wave_Model_Data_best.ncd

10:15:57 INFO: **** Downloading to file 2014-07-07/2014-07-07-ESPRESSO.nc *****
10:15:57 INFO: [No Data] Mayport (Bar Pilots Dock), FL
10:15:57 INFO: [No Data] I-295 Bridge, St Johns River, FL
10:15:57 INFO: [No Data] Red Bay Point, St Johns River, FL
10:15:57 INFO: [No Data] Tolomato River station
10:15:57 INFO: [No Data] Shell Point station
10:15:57 INFO: [No Data] Cherry Grove Pier, N. Myrtle Beach, SC
10:15:57 INFO: [No Data] Gulf of Mexico station
10:15:57 INFO: [No Data] Shell Point
10:15:57 INFO: [No Data] St Lucie Inlet station
10:15:57 INFO: [No Data] Redfish Pass station
10:15:57 INFO: [No Data] fau_lobo_1
10:15:57 INFO: [No Data] CORMP ILM3, Wrightsville Beach Offshore, NC
10:15:57 INFO: [No Data] Fort Myers station
10:15:57 INFO: [No Data] CAROCOOPS SUN2, Sunset Nearshore, NC
10:15:57 INFO: [No Data] CORMP ILM2, Wrightsville Beach Nearshore, NC
10:15:57 INFO: [No Data] Bing&#39;s Landing station
10:15:57 INFO: [No Data] 2nd Ave North Pier, Myrtle Beach, SC
10:15:57 INFO: [No Data] Tarpon Bay station
10:15:57 INFO: [No Data] Apache Pier, Myrtle Beach, SC
10:15:57 INFO: Finished processing [ESPRESSO]: http://crow.marine.usf.edu:8080/thredds/dodsC/WFS_SWAN_NF_model/USF_Ocean_Circulation_Group_West_Florida_Shelf_Daily_SWAN_Nowcast_Forecast_Wave_Model_Data_best.ncd

10:15:57 WARNING: /home/filipe/miniconda/envs/SECOORA/lib/python2.7/site-packages/numpy/core/_methods.py:59: RuntimeWarning: Mean of empty slice.
  warnings.warn("Mean of empty slice.", RuntimeWarning)

10:16:08 INFO: 33.71 minutes
10:16:08 INFO: EOF
