04:42:15 INFO: ************Saving data inside directory 2014-07-07*************
04:42:15 INFO: *********************** Run information ************************
04:42:15 INFO: Run date: 2015-10-05 19:42:15
04:42:15 INFO: Download start: 2014-07-01 12:00:00
04:42:15 INFO: Download stop: 2014-07-07 12:00:00
04:42:15 INFO: Bounding box: -87.40, 24.25,-74.70, 36.70
04:42:15 INFO: *********************** Software version ***********************
04:42:15 INFO: Iris version: 1.8.1
04:42:15 INFO: owslib version: 0.9.2
04:42:15 INFO: pyoos version: 0.6.2
04:42:20 INFO: ********************* Catalog information **********************
04:42:20 INFO: URL: http://www.ngdc.noaa.gov/geoportal/csw
04:42:20 INFO: CSW version: 2.0.2
04:42:20 INFO: Number of datasets available: 31
04:42:20 INFO: ***************************** CSW ******************************
04:42:20 INFO: USF FVCOM - Nowcast Aggregation
04:42:20 INFO: ROMS/TOMS 3.0 - New Floria Shelf Application
04:42:20 INFO: ROMS/TOMS 3.0 - South-Atlantic Bight and Gulf of Mexico
04:42:20 INFO: COAWST Forecast System : USGS : US East Coast and Gulf of Mexico (Experimental)
04:42:20 INFO: ROMS ESPRESSO Real-Time Operational IS4DVAR Forecast System Version 2 (NEW) 2013-present FMRC History
04:42:20 INFO: HYbrid Coordinate Ocean Model (HYCOM): Global
04:42:20 INFO: National Data Buoy Center SOS
04:42:20 INFO: Aquarius Level 3 Sea Surface Salinity Standard Mapped Image Daily Data V3.0
04:42:20 INFO: Aquarius Level 3 Sea Surface Salinity Standard Mapped Image Monthly Data V3.0
04:42:20 INFO: Aquarius Level 3 Sea Surface Salinity Standard Mapped Image Weekly Data V3.0
04:42:20 INFO: Aquarius Level 3 Sea Surface Salinity Standard Mapped Image Daily Data V4.0
04:42:20 INFO: Aquarius Level 3 Sea Surface Salinity Standard Mapped Image Monthly Data V4.0
04:42:20 INFO: Aquarius Level 3 Sea Surface Salinity Standard Mapped Image Weekly Data V4.0
04:42:20 INFO: carocoops.cap2.buoy
04:42:20 INFO: carocoops.cap2.buoy
04:42:20 INFO: carocoops.frp2.buoy
04:42:20 INFO: carocoops.frp2.buoy
04:42:20 INFO: carocoops.sun2.buoy
04:42:20 INFO: lbhmc.apachepier.pier
04:42:20 INFO: lbhmc.cherrygrove.pier
04:42:20 INFO: sccf.fortmyers.wq
04:42:20 INFO: sccf.gulfofmexico.wq
04:42:20 INFO: sccf.redfishpass.wq
04:42:20 INFO: sccf.shellpoint.wq
04:42:20 INFO: sccf.tarponbay.wq
04:42:20 INFO: usf.shp.ngwlms
04:42:20 INFO: fau.lobo.1
04:42:20 INFO: fldep.bingslanding.
04:42:20 INFO: fldep.stlucieinlet.
04:42:20 INFO: fldep.tolomatoriver.
04:42:20 INFO: lbhmc.2ndave.pier
04:42:20 INFO: ***************************** SOS ******************************
04:42:20 INFO: http://sdf.ndbc.noaa.gov/sos/server.php?service=SOS&request=GetCapabilities&acceptVersions=1.0.0
04:42:20 INFO: http://tds.secoora.org/thredds/sos/carocoops.cap2.buoy.nc?service=SOS&version=1.0.0&request=GetCapabilities
04:42:20 INFO: http://tds.secoora.org/thredds/sos/carocoops.cap2.buoy_archive.nc?service=SOS&version=1.0.0&request=GetCapabilities
04:42:20 INFO: http://tds.secoora.org/thredds/sos/carocoops.frp2.buoy.nc?service=SOS&version=1.0.0&request=GetCapabilities
04:42:20 INFO: http://tds.secoora.org/thredds/sos/carocoops.frp2.buoy_archive.nc?service=SOS&version=1.0.0&request=GetCapabilities
04:42:20 INFO: http://tds.secoora.org/thredds/sos/carocoops.sun2.buoy_archive.nc?service=SOS&version=1.0.0&request=GetCapabilities
04:42:20 INFO: http://tds.secoora.org/thredds/sos/fau.lobo.1.nc?service=SOS&version=1.0.0&request=GetCapabilities
04:42:20 INFO: http://tds.secoora.org/thredds/sos/fldep.bingslanding..nc?service=SOS&version=1.0.0&request=GetCapabilities
04:42:20 INFO: http://tds.secoora.org/thredds/sos/fldep.stlucieinlet..nc?service=SOS&version=1.0.0&request=GetCapabilities
04:42:20 INFO: http://tds.secoora.org/thredds/sos/fldep.tolomatoriver..nc?service=SOS&version=1.0.0&request=GetCapabilities
04:42:20 INFO: http://tds.secoora.org/thredds/sos/lbhmc.2ndave.pier.nc?service=SOS&version=1.0.0&request=GetCapabilities
04:42:20 INFO: http://tds.secoora.org/thredds/sos/lbhmc.apachepier.pier.nc?service=SOS&version=1.0.0&request=GetCapabilities
04:42:20 INFO: http://tds.secoora.org/thredds/sos/lbhmc.cherrygrove.pier.nc?service=SOS&version=1.0.0&request=GetCapabilities
04:42:20 INFO: http://tds.secoora.org/thredds/sos/sccf.fortmyers.wq.nc?service=SOS&version=1.0.0&request=GetCapabilities
04:42:20 INFO: http://tds.secoora.org/thredds/sos/sccf.gulfofmexico.wq.nc?service=SOS&version=1.0.0&request=GetCapabilities
04:42:20 INFO: http://tds.secoora.org/thredds/sos/sccf.redfishpass.wq.nc?service=SOS&version=1.0.0&request=GetCapabilities
04:42:20 INFO: http://tds.secoora.org/thredds/sos/sccf.shellpoint.wq.nc?service=SOS&version=1.0.0&request=GetCapabilities
04:42:20 INFO: http://tds.secoora.org/thredds/sos/sccf.tarponbay.wq.nc?service=SOS&version=1.0.0&request=GetCapabilities
04:42:20 INFO: http://tds.secoora.org/thredds/sos/usf.shp.ngwlms.nc?service=SOS&version=1.0.0&request=GetCapabilities
04:42:20 INFO: ***************************** DAP ******************************
04:42:20 INFO: http://crow.marine.usf.edu:8080/thredds/dodsC/FVCOM-Nowcast-Agg.nc.html
04:42:20 INFO: http://crow.marine.usf.edu:8080/thredds/dodsC/WFS_ROMS_NF_model/USF_Ocean_Circulation_Group_West_Florida_Shelf_Daily_ROMS_Nowcast_Forecast_Model_Data_best.ncd.html
04:42:20 INFO: http://geoport.whoi.edu/thredds/dodsC/coawst_4/use/fmrc/coawst_4_use_best.ncd.html
04:42:20 INFO: http://omgsrv1.meas.ncsu.edu:8080/thredds/dodsC/fmrc/sabgom/SABGOM_Forecast_Model_Run_Collection_best.ncd.html
04:42:20 INFO: http://oos.soest.hawaii.edu/thredds/dodsC/pacioos/hycom/global.html
04:42:20 INFO: http://tds.marine.rutgers.edu/thredds/dodsC/roms/espresso/2013_da/his/ESPRESSO_Real-Time_v2_History_Best.html
04:42:20 INFO: http://tds.secoora.org/thredds/dodsC/carocoops.cap2.buoy.nc.html
04:42:20 INFO: http://tds.secoora.org/thredds/dodsC/carocoops.cap2.buoy_archive.nc.html
04:42:20 INFO: http://tds.secoora.org/thredds/dodsC/carocoops.frp2.buoy.nc.html
04:42:20 INFO: http://tds.secoora.org/thredds/dodsC/carocoops.frp2.buoy_archive.nc.html
04:42:20 INFO: http://tds.secoora.org/thredds/dodsC/carocoops.sun2.buoy_archive.nc.html
04:42:20 INFO: http://tds.secoora.org/thredds/dodsC/fau.lobo.1.nc.html
04:42:20 INFO: http://tds.secoora.org/thredds/dodsC/fldep.bingslanding..nc.html
04:42:20 INFO: http://tds.secoora.org/thredds/dodsC/fldep.stlucieinlet..nc.html
04:42:20 INFO: http://tds.secoora.org/thredds/dodsC/fldep.tolomatoriver..nc.html
04:42:20 INFO: http://tds.secoora.org/thredds/dodsC/lbhmc.2ndave.pier.nc.html
04:42:20 INFO: http://tds.secoora.org/thredds/dodsC/lbhmc.apachepier.pier.nc.html
04:42:20 INFO: http://tds.secoora.org/thredds/dodsC/lbhmc.cherrygrove.pier.nc.html
04:42:20 INFO: http://tds.secoora.org/thredds/dodsC/sccf.fortmyers.wq.nc.html
04:42:20 INFO: http://tds.secoora.org/thredds/dodsC/sccf.gulfofmexico.wq.nc.html
04:42:20 INFO: http://tds.secoora.org/thredds/dodsC/sccf.redfishpass.wq.nc.html
04:42:20 INFO: http://tds.secoora.org/thredds/dodsC/sccf.shellpoint.wq.nc.html
04:42:20 INFO: http://tds.secoora.org/thredds/dodsC/sccf.tarponbay.wq.nc.html
04:42:20 INFO: http://tds.secoora.org/thredds/dodsC/usf.shp.ngwlms.nc.html
04:42:20 INFO: http://thredds.axiomdatascience.com/thredds/dodsC/Aquarius_V3_SSS_Daily.nc.html
04:42:20 INFO: http://thredds.axiomdatascience.com/thredds/dodsC/Aquarius_V3_SSS_Monthly.nc.html
04:42:20 INFO: http://thredds.axiomdatascience.com/thredds/dodsC/Aquarius_V3_SSS_Weekly.nc.html
04:42:20 INFO: http://thredds.axiomdatascience.com/thredds/dodsC/Aquarius_V4_SSS_Daily.nc.html
04:42:20 INFO: http://thredds.axiomdatascience.com/thredds/dodsC/Aquarius_V4_SSS_Monthly.nc.html
04:42:20 INFO: http://thredds.axiomdatascience.com/thredds/dodsC/Aquarius_V4_SSS_Weekly.nc.html
04:44:55 INFO: ************************* Filtered DAP *************************
04:44:55 INFO: http://crow.marine.usf.edu:8080/thredds/dodsC/FVCOM-Nowcast-Agg.nc.html
04:44:55 INFO: http://crow.marine.usf.edu:8080/thredds/dodsC/WFS_ROMS_NF_model/USF_Ocean_Circulation_Group_West_Florida_Shelf_Daily_ROMS_Nowcast_Forecast_Model_Data_best.ncd.html
04:44:55 INFO: http://geoport.whoi.edu/thredds/dodsC/coawst_4/use/fmrc/coawst_4_use_best.ncd.html
04:44:55 INFO: http://omgsrv1.meas.ncsu.edu:8080/thredds/dodsC/fmrc/sabgom/SABGOM_Forecast_Model_Run_Collection_best.ncd.html
04:44:55 INFO: http://oos.soest.hawaii.edu/thredds/dodsC/pacioos/hycom/global.html
04:44:55 INFO: http://tds.marine.rutgers.edu/thredds/dodsC/roms/espresso/2013_da/his/ESPRESSO_Real-Time_v2_History_Best.html
04:44:55 INFO: http://thredds.axiomdatascience.com/thredds/dodsC/Aquarius_V3_SSS_Daily.nc.html
04:44:55 INFO: http://thredds.axiomdatascience.com/thredds/dodsC/Aquarius_V3_SSS_Monthly.nc.html
04:44:55 INFO: http://thredds.axiomdatascience.com/thredds/dodsC/Aquarius_V3_SSS_Weekly.nc.html
04:44:55 INFO: http://thredds.axiomdatascience.com/thredds/dodsC/Aquarius_V4_SSS_Daily.nc.html
04:44:55 INFO: http://thredds.axiomdatascience.com/thredds/dodsC/Aquarius_V4_SSS_Monthly.nc.html
04:44:55 INFO: http://thredds.axiomdatascience.com/thredds/dodsC/Aquarius_V4_SSS_Weekly.nc.html
04:44:55 WARNING: USEAST not in the NGDC csw
04:44:55 WARNING: USF_SWAN not in the NGDC csw
04:45:04 WARNING: Cannot get cube for: http://129.252.139.124/thredds/dodsC/fit.sispnj.met.nc
Cannot find ['sea_water_salinity', 'sea_surface_salinity', 'sea_water_absolute_salinity', 'sea_water_practical_salinity'] in http://129.252.139.124/thredds/dodsC/fit.sispnj.met.nc.
04:45:36 WARNING: Cannot get cube for: http://129.252.139.124/thredds/dodsC/usf.nfb.ngwlms.nc
Cannot find ['sea_water_salinity', 'sea_surface_salinity', 'sea_water_absolute_salinity', 'sea_water_practical_salinity'] in http://129.252.139.124/thredds/dodsC/usf.nfb.ngwlms.nc.
04:45:47 WARNING: Cannot get cube for: http://129.252.139.124/thredds/dodsC/usf.tas.ngwlms.nc
Cannot find ['sea_water_salinity', 'sea_surface_salinity', 'sea_water_absolute_salinity', 'sea_water_practical_salinity'] in http://129.252.139.124/thredds/dodsC/usf.tas.ngwlms.nc.
04:46:02 WARNING: Cannot get cube for: http://129.252.139.124/thredds/dodsC/usf.apk.ngwlms.nc
Cannot find ['sea_water_salinity', 'sea_surface_salinity', 'sea_water_absolute_salinity', 'sea_water_practical_salinity'] in http://129.252.139.124/thredds/dodsC/usf.apk.ngwlms.nc.
04:46:13 WARNING: Cannot get cube for: http://129.252.139.124/thredds/dodsC/usf.c21.weatherpak.nc
Cannot find ['sea_water_salinity', 'sea_surface_salinity', 'sea_water_absolute_salinity', 'sea_water_practical_salinity'] in http://129.252.139.124/thredds/dodsC/usf.c21.weatherpak.nc.
04:46:33 WARNING: Cannot get cube for: http://129.252.139.124/thredds/dodsC/usf.bcp.ngwlms.nc
Cannot find ['sea_water_salinity', 'sea_surface_salinity', 'sea_water_absolute_salinity', 'sea_water_practical_salinity'] in http://129.252.139.124/thredds/dodsC/usf.bcp.ngwlms.nc.
04:46:43 WARNING: Cannot get cube for: http://129.252.139.124/thredds/dodsC/usf.fhp.ngwlms.nc
Cannot find ['sea_water_salinity', 'sea_surface_salinity', 'sea_water_absolute_salinity', 'sea_water_practical_salinity'] in http://129.252.139.124/thredds/dodsC/usf.fhp.ngwlms.nc.
04:46:52 WARNING: Cannot get cube for: http://129.252.139.124/thredds/dodsC/usf.c10.mcat.nc
istart must be different from istop! Got istart 48233 and  istop 48233
04:47:13 WARNING: Cannot get cube for: http://129.252.139.124/thredds/dodsC/c10_salinity_water_temp.nc
'Expected to find exactly 1  coordinate, but found none.'
04:47:26 WARNING: Cannot get cube for: http://129.252.139.124/thredds/dodsC/QC_C10_Temp_full.nc
Cannot find ['sea_water_salinity', 'sea_surface_salinity', 'sea_water_absolute_salinity', 'sea_water_practical_salinity'] in http://129.252.139.124/thredds/dodsC/QC_C10_Temp_full.nc.
04:47:42 WARNING: Cannot get cube for: http://129.252.139.124/thredds/dodsC/QC_C10_Sal_full.nc
'Expected to find exactly 1  coordinate, but found none.'
04:47:48 WARNING: Cannot get cube for: http://129.252.139.124/thredds/dodsC/usf.c12.mcat.nc
istart must be different from istop! Got istart 18711 and  istop 18711
04:48:00 WARNING: Cannot get cube for: http://129.252.139.124/thredds/dodsC/usf.c13.mcat.nc
istart must be different from istop! Got istart 18099 and  istop 18099
04:48:08 WARNING: Cannot get cube for: http://129.252.139.124/thredds/dodsC/usf.c10.mcat_2011.nc
istart must be different from istop! Got istart 26303 and  istop 26303
04:48:16 WARNING: Cannot get cube for: http://129.252.139.124/thredds/dodsC/usf.c12.mcat_2011.nc
istart must be different from istop! Got istart 26303 and  istop 26303
04:48:23 WARNING: Cannot get cube for: http://129.252.139.124/thredds/dodsC/usf.c13.mcat_2011.nc
istart must be different from istop! Got istart 26303 and  istop 26303
04:49:13 WARNING: Cannot get cube for: http://129.252.139.124/thredds/dodsC/cormp.ilm2.buoy.nc
Cannot find ['sea_water_salinity', 'sea_surface_salinity', 'sea_water_absolute_salinity', 'sea_water_practical_salinity'] in http://129.252.139.124/thredds/dodsC/cormp.ilm2.buoy.nc.
04:49:16 WARNING: Cannot get cube for: http://129.252.139.124/thredds/dodsC/cormp.ilm1.buoy.nc
istart must be different from istop! Got istart 1443 and  istop 1443
04:49:27 WARNING: Cannot get cube for: http://129.252.139.124/thredds/dodsC/cormp.lej3.buoy.nc
istart must be different from istop! Got istart 91490 and  istop 91490
04:50:34 WARNING: Cannot get cube for: http://129.252.139.124/thredds/dodsC/fldep.poncedeleonsouth..nc
Cannot find ['sea_water_salinity', 'sea_surface_salinity', 'sea_water_absolute_salinity', 'sea_water_practical_salinity'] in http://129.252.139.124/thredds/dodsC/fldep.poncedeleonsouth..nc.
04:50:55 WARNING: Cannot get cube for: http://129.252.139.124/thredds/dodsC/fldep.redbaypoint..nc
Cannot find ['sea_water_salinity', 'sea_surface_salinity', 'sea_water_absolute_salinity', 'sea_water_practical_salinity'] in http://129.252.139.124/thredds/dodsC/fldep.redbaypoint..nc.
04:51:34 WARNING: Cannot get cube for: http://129.252.139.124/thredds/dodsC/fldep.naplesbay..nc
Cannot find ['sea_water_salinity', 'sea_surface_salinity', 'sea_water_absolute_salinity', 'sea_water_practical_salinity'] in http://129.252.139.124/thredds/dodsC/fldep.naplesbay..nc.
04:51:46 WARNING: Cannot get cube for: http://129.252.139.124/thredds/dodsC/fldep.gordonriverinlet..nc
Cannot find ['sea_water_salinity', 'sea_surface_salinity', 'sea_water_absolute_salinity', 'sea_water_practical_salinity'] in http://129.252.139.124/thredds/dodsC/fldep.gordonriverinlet..nc.
04:52:02 WARNING: Cannot get cube for: http://129.252.139.124/thredds/dodsC/fldep.melbourne..nc
Cannot find ['sea_water_salinity', 'sea_surface_salinity', 'sea_water_absolute_salinity', 'sea_water_practical_salinity'] in http://129.252.139.124/thredds/dodsC/fldep.melbourne..nc.
04:52:25 WARNING: Cannot get cube for: http://129.252.139.124/thredds/dodsC/fldep.binneydock..nc
Cannot find ['sea_water_salinity', 'sea_surface_salinity', 'sea_water_absolute_salinity', 'sea_water_practical_salinity'] in http://129.252.139.124/thredds/dodsC/fldep.binneydock..nc.
04:52:39 WARNING: Cannot get cube for: http://129.252.139.124/thredds/dodsC/fldep.verobeach..nc
Cannot find ['sea_water_salinity', 'sea_surface_salinity', 'sea_water_absolute_salinity', 'sea_water_practical_salinity'] in http://129.252.139.124/thredds/dodsC/fldep.verobeach..nc.
04:53:26 WARNING: Cannot get cube for: http://129.252.139.124/thredds/dodsC/enp.wiwf1.met.nc
Cannot find ['sea_water_salinity', 'sea_surface_salinity', 'sea_water_absolute_salinity', 'sea_water_practical_salinity'] in http://129.252.139.124/thredds/dodsC/enp.wiwf1.met.nc.
04:53:33 WARNING: Cannot get cube for: http://129.252.139.124/thredds/dodsC/enp.lbrf1.met.nc
Cannot find ['sea_water_salinity', 'sea_surface_salinity', 'sea_water_absolute_salinity', 'sea_water_practical_salinity'] in http://129.252.139.124/thredds/dodsC/enp.lbrf1.met.nc.
04:53:40 WARNING: Cannot get cube for: http://129.252.139.124/thredds/dodsC/enp.bobf1.met.nc
Cannot find ['sea_water_salinity', 'sea_surface_salinity', 'sea_water_absolute_salinity', 'sea_water_practical_salinity'] in http://129.252.139.124/thredds/dodsC/enp.bobf1.met.nc.
04:53:47 WARNING: Cannot get cube for: http://129.252.139.124/thredds/dodsC/enp.trrf1.met.nc
Cannot find ['sea_water_salinity', 'sea_surface_salinity', 'sea_water_absolute_salinity', 'sea_water_practical_salinity'] in http://129.252.139.124/thredds/dodsC/enp.trrf1.met.nc.
04:53:55 WARNING: Cannot get cube for: http://129.252.139.124/thredds/dodsC/enp.wwef1.met.nc
Cannot find ['sea_water_salinity', 'sea_surface_salinity', 'sea_water_absolute_salinity', 'sea_water_practical_salinity'] in http://129.252.139.124/thredds/dodsC/enp.wwef1.met.nc.
04:54:04 WARNING: Cannot get cube for: http://129.252.139.124/thredds/dodsC/enp.lrif1.met.nc
Cannot find ['sea_water_salinity', 'sea_surface_salinity', 'sea_water_absolute_salinity', 'sea_water_practical_salinity'] in http://129.252.139.124/thredds/dodsC/enp.lrif1.met.nc.
04:54:11 WARNING: Cannot get cube for: http://129.252.139.124/thredds/dodsC/enp.bwsf1.met.nc
Cannot find ['sea_water_salinity', 'sea_surface_salinity', 'sea_water_absolute_salinity', 'sea_water_practical_salinity'] in http://129.252.139.124/thredds/dodsC/enp.bwsf1.met.nc.
04:54:18 WARNING: Cannot get cube for: http://129.252.139.124/thredds/dodsC/enp.pkyf1.met.nc
Cannot find ['sea_water_salinity', 'sea_surface_salinity', 'sea_water_absolute_salinity', 'sea_water_practical_salinity'] in http://129.252.139.124/thredds/dodsC/enp.pkyf1.met.nc.
04:54:25 WARNING: Cannot get cube for: http://129.252.139.124/thredds/dodsC/enp.lmdf1.met.nc
Cannot find ['sea_water_salinity', 'sea_surface_salinity', 'sea_water_absolute_salinity', 'sea_water_practical_salinity'] in http://129.252.139.124/thredds/dodsC/enp.lmdf1.met.nc.
04:54:32 WARNING: Cannot get cube for: http://129.252.139.124/thredds/dodsC/enp.cnbf1.met.nc
Cannot find ['sea_water_salinity', 'sea_surface_salinity', 'sea_water_absolute_salinity', 'sea_water_practical_salinity'] in http://129.252.139.124/thredds/dodsC/enp.cnbf1.met.nc.
04:54:38 WARNING: Cannot get cube for: http://129.252.139.124/thredds/dodsC/enp.hcef1.met.nc
Cannot find ['sea_water_salinity', 'sea_surface_salinity', 'sea_water_absolute_salinity', 'sea_water_practical_salinity'] in http://129.252.139.124/thredds/dodsC/enp.hcef1.met.nc.
04:54:45 WARNING: Cannot get cube for: http://129.252.139.124/thredds/dodsC/enp.jkyf1.met.nc
Cannot find ['sea_water_salinity', 'sea_surface_salinity', 'sea_water_absolute_salinity', 'sea_water_practical_salinity'] in http://129.252.139.124/thredds/dodsC/enp.jkyf1.met.nc.
04:54:52 WARNING: Cannot get cube for: http://129.252.139.124/thredds/dodsC/enp.wrbf1.met.nc
Cannot find ['sea_water_salinity', 'sea_surface_salinity', 'sea_water_absolute_salinity', 'sea_water_practical_salinity'] in http://129.252.139.124/thredds/dodsC/enp.wrbf1.met.nc.
04:54:59 WARNING: Cannot get cube for: http://129.252.139.124/thredds/dodsC/enp.gbif1.met.nc
Cannot find ['sea_water_salinity', 'sea_surface_salinity', 'sea_water_absolute_salinity', 'sea_water_practical_salinity'] in http://129.252.139.124/thredds/dodsC/enp.gbif1.met.nc.
04:55:08 WARNING: Cannot get cube for: http://129.252.139.124/thredds/dodsC/enp.ppta1.met.nc
Cannot find ['sea_water_salinity', 'sea_surface_salinity', 'sea_water_absolute_salinity', 'sea_water_practical_salinity'] in http://129.252.139.124/thredds/dodsC/enp.ppta1.met.nc.
04:55:15 WARNING: Cannot get cube for: http://129.252.139.124/thredds/dodsC/enp.bdvf1.met.nc
Cannot find ['sea_water_salinity', 'sea_surface_salinity', 'sea_water_absolute_salinity', 'sea_water_practical_salinity'] in http://129.252.139.124/thredds/dodsC/enp.bdvf1.met.nc.
04:55:22 WARNING: Cannot get cube for: http://129.252.139.124/thredds/dodsC/enp.lrkf1.met.nc
Cannot find ['sea_water_salinity', 'sea_surface_salinity', 'sea_water_absolute_salinity', 'sea_water_practical_salinity'] in http://129.252.139.124/thredds/dodsC/enp.lrkf1.met.nc.
04:55:29 WARNING: Cannot get cube for: http://129.252.139.124/thredds/dodsC/enp.bnkf1.met.nc
Cannot find ['sea_water_salinity', 'sea_surface_salinity', 'sea_water_absolute_salinity', 'sea_water_practical_salinity'] in http://129.252.139.124/thredds/dodsC/enp.bnkf1.met.nc.
04:55:36 WARNING: Cannot get cube for: http://129.252.139.124/thredds/dodsC/enp.gbtf1.met.nc
Cannot find ['sea_water_salinity', 'sea_surface_salinity', 'sea_water_absolute_salinity', 'sea_water_practical_salinity'] in http://129.252.139.124/thredds/dodsC/enp.gbtf1.met.nc.
04:55:43 WARNING: Cannot get cube for: http://129.252.139.124/thredds/dodsC/enp.tcvf1.met.nc
Cannot find ['sea_water_salinity', 'sea_surface_salinity', 'sea_water_absolute_salinity', 'sea_water_practical_salinity'] in http://129.252.139.124/thredds/dodsC/enp.tcvf1.met.nc.
04:55:50 WARNING: Cannot get cube for: http://129.252.139.124/thredds/dodsC/enp.canf1.met.nc
Cannot find ['sea_water_salinity', 'sea_surface_salinity', 'sea_water_absolute_salinity', 'sea_water_practical_salinity'] in http://129.252.139.124/thredds/dodsC/enp.canf1.met.nc.
04:56:00 WARNING: Cannot get cube for: http://129.252.139.124/thredds/dodsC/enp.lbsf1.met.nc
Cannot find ['sea_water_salinity', 'sea_surface_salinity', 'sea_water_absolute_salinity', 'sea_water_practical_salinity'] in http://129.252.139.124/thredds/dodsC/enp.lbsf1.met.nc.
04:56:07 WARNING: Cannot get cube for: http://129.252.139.124/thredds/dodsC/enp.mukf1.met.nc
Cannot find ['sea_water_salinity', 'sea_surface_salinity', 'sea_water_absolute_salinity', 'sea_water_practical_salinity'] in http://129.252.139.124/thredds/dodsC/enp.mukf1.met.nc.
04:56:14 WARNING: Cannot get cube for: http://129.252.139.124/thredds/dodsC/enp.dkkf1.met.nc
Cannot find ['sea_water_salinity', 'sea_surface_salinity', 'sea_water_absolute_salinity', 'sea_water_practical_salinity'] in http://129.252.139.124/thredds/dodsC/enp.dkkf1.met.nc.
04:56:21 WARNING: Cannot get cube for: http://129.252.139.124/thredds/dodsC/enp.cwaf1.met.nc
Cannot find ['sea_water_salinity', 'sea_surface_salinity', 'sea_water_absolute_salinity', 'sea_water_practical_salinity'] in http://129.252.139.124/thredds/dodsC/enp.cwaf1.met.nc.
04:56:48 INFO: ********************* Collector offerings **********************
04:56:48 INFO: NOAA.NOS.CO-OPS SOS: 1052 offerings
04:56:50 INFO: SOS URL request: http://opendap.co-ops.nos.noaa.gov/ioos-dif-sos/SOS?eventTime=2014-07-01T12%3A00%3A00Z&service=SOS&offering=urn%3Aioos%3Anetwork%3ANOAA.NOS.CO-OPS%3AMetActive&request=GetObservation&version=1.0.0&responseFormat=text%2Fcsv&featureOfInterest=BBOX%3A-87.4%2C24.25%2C-74.7%2C36.7&observedProperty=salinity
04:58:29 INFO: ************************* Observations *************************
04:58:29 INFO: **** Downloading to file 2014-07-07/2014-07-07-OBS_DATA.nc *****
04:58:31 WARNING: /home/filipe/miniconda/envs/secoora-skill/lib/python2.7/site-packages/pandas/util/decorators.py:81: FutureWarning: the 'cols' keyword is deprecated, use 'subset' instead
  warnings.warn(msg, FutureWarning)

04:58:36 INFO: **** Downloading to file 2014-07-07/2014-07-07-OBS_DATA.nc *****
04:58:36 WARNING: /home/filipe/miniconda/envs/secoora-skill/lib/python2.7/site-packages/iris/fileformats/netcdf.py:1783: UserWarning: NetCDF default saving behaviour currently assigns the outermost dimensions to unlimited. This behaviour is to be deprecated, in favour of no automatic assignment. To switch to the new behaviour, set iris.FUTURE.netcdf_no_unlimited to True.
  warnings.warn(msg)

04:58:36 INFO: ********************* SECOORA Observations *********************
04:58:36 INFO:  Downloading to file 2014-07-07/2014-07-07-SECOORA_OBS_DATA.nc *
04:58:36 INFO: **************************** Models ****************************
04:58:36 INFO: 
[Reading url 1/14]: http://crow.marine.usf.edu:8080/thredds/dodsC/FVCOM-Nowcast-Agg.nc
04:58:56 INFO: 
[Reading url 2/14]: http://crow.marine.usf.edu:8080/thredds/dodsC/WFS_ROMS_NF_model/USF_Ocean_Circulation_Group_West_Florida_Shelf_Daily_ROMS_Nowcast_Forecast_Model_Data_best.ncd
04:59:06 INFO: 
[Reading url 3/14]: http://geoport.whoi.edu/thredds/dodsC/coawst_4/use/fmrc/coawst_4_use_best.ncd
05:00:38 INFO: 
[Reading url 4/14]: http://omgarch1.meas.ncsu.edu:8080/thredds/dodsC/fmrc/sabgom/SABGOM_Forecast_Model_Run_Collection_best.ncd
06:00:59 WARNING: Cannot get cube for: http://omgarch1.meas.ncsu.edu:8080/thredds/dodsC/fmrc/sabgom/SABGOM_Forecast_Model_Run_Collection_best.ncd
Timed out!
06:00:59 INFO: 
[Reading url 5/14]: http://oos.soest.hawaii.edu/thredds/dodsC/pacioos/hycom/global
06:01:03 INFO: 
[Reading url 6/14]: http://tds.marine.rutgers.edu/thredds/dodsC/roms/espresso/2013_da/his/ESPRESSO_Real-Time_v2_History_Best
06:13:49 WARNING: Cannot get cube for: http://tds.marine.rutgers.edu/thredds/dodsC/roms/espresso/2013_da/his/ESPRESSO_Real-Time_v2_History_Best
Timed out!
06:13:49 INFO: 
[Reading url 7/14]: http://thredds.axiomdatascience.com/thredds/dodsC/Aquarius_V3_SSS_Daily.nc
06:13:59 WARNING: Cannot get cube for: http://thredds.axiomdatascience.com/thredds/dodsC/Aquarius_V3_SSS_Daily.nc
istart must be different from istop! Got istart 992 and  istop 992
06:13:59 INFO: 
[Reading url 8/14]: http://thredds.axiomdatascience.com/thredds/dodsC/Aquarius_V3_SSS_Monthly.nc
06:14:02 WARNING: Cannot get cube for: http://thredds.axiomdatascience.com/thredds/dodsC/Aquarius_V3_SSS_Monthly.nc
istart must be different from istop! Got istart 35 and  istop 35
06:14:02 INFO: 
[Reading url 9/14]: http://thredds.axiomdatascience.com/thredds/dodsC/Aquarius_V3_SSS_Weekly.nc
06:14:09 WARNING: Cannot get cube for: http://thredds.axiomdatascience.com/thredds/dodsC/Aquarius_V3_SSS_Weekly.nc
istart must be different from istop! Got istart 149 and  istop 149
06:14:09 INFO: 
[Reading url 10/14]: http://thredds.axiomdatascience.com/thredds/dodsC/Aquarius_V4_SSS_Daily.nc
06:15:04 INFO: 
[Reading url 11/14]: http://thredds.axiomdatascience.com/thredds/dodsC/Aquarius_V4_SSS_Monthly.nc
06:15:07 WARNING: Cannot get cube for: http://thredds.axiomdatascience.com/thredds/dodsC/Aquarius_V4_SSS_Monthly.nc
istart must be different from istop! Got istart 35 and  istop 35
06:15:07 INFO: 
[Reading url 12/14]: http://thredds.axiomdatascience.com/thredds/dodsC/Aquarius_V4_SSS_Weekly.nc
06:15:16 INFO: 
[Reading url 13/14]: http://omgsrv1.meas.ncsu.edu:8080/thredds/dodsC/fmrc/us_east/US_East_Forecast_Model_Run_Collection_best.ncd
06:16:28 WARNING: Cannot get cube for: http://omgsrv1.meas.ncsu.edu:8080/thredds/dodsC/fmrc/us_east/US_East_Forecast_Model_Run_Collection_best.ncd
istart must be different from istop! Got istart 0 and  istop 0
06:16:28 INFO: 
[Reading url 14/14]: http://crow.marine.usf.edu:8080/thredds/dodsC/WFS_SWAN_NF_model/USF_Ocean_Circulation_Group_West_Florida_Shelf_Daily_SWAN_Nowcast_Forecast_Wave_Model_Data_best.ncd
06:16:30 WARNING: Cannot get cube for: http://crow.marine.usf.edu:8080/thredds/dodsC/WFS_SWAN_NF_model/USF_Ocean_Circulation_Group_West_Florida_Shelf_Daily_SWAN_Nowcast_Forecast_Wave_Model_Data_best.ncd
Cannot find ['sea_water_salinity', 'sea_surface_salinity', 'sea_water_absolute_salinity', 'sea_water_practical_salinity'] in http://crow.marine.usf.edu:8080/thredds/dodsC/WFS_SWAN_NF_model/USF_Ocean_Circulation_Group_West_Florida_Shelf_Daily_SWAN_Nowcast_Forecast_Wave_Model_Data_best.ncd.
06:16:30 INFO: ****** Downloading to file 2014-07-07/2014-07-07-V4.0.nc *******
06:16:30 INFO: [No Data] I-295 Bridge, St Johns River, FL
06:16:30 INFO: [No Data] Red Bay Point, St Johns River, FL
06:16:30 INFO: [No Data] Tolomato River station
06:16:30 INFO: [No Data] Shell Point station
06:16:30 INFO: [No Data] Cherry Grove Pier, N. Myrtle Beach, SC
06:16:30 INFO: [No Data] Gulf of Mexico station
06:16:30 INFO: [No Data] Shell Point
06:16:30 INFO: [No Data] St Lucie Inlet station
06:16:30 INFO: [No Data] Redfish Pass station
06:16:30 INFO: [No Data] fau_lobo_1
06:16:30 INFO: [No Data] CORMP ILM3, Wrightsville Beach Offshore, NC
06:16:30 INFO: [No Data] Fort Myers station
06:16:30 INFO: [No Data] usf_c10_imet
06:16:30 INFO: [No Data] CAROCOOPS SUN2, Sunset Nearshore, NC
06:16:30 INFO: [No Data] Bing's Landing station
06:16:30 INFO: [No Data] CAROCOOPS CAP2, Capers Island Nearshore, SC
06:16:30 INFO: [No Data] Tarpon Bay station
06:16:30 INFO: [No Data] CAROCOOPS FRP2, Fripp Nearshore, SC
06:16:30 INFO: [No Data] 2nd Ave North Pier, Myrtle Beach, SC
06:16:30 INFO: [No Data] Apache Pier, Myrtle Beach, SC
06:16:30 INFO: Finished processing [V4.0]: http://crow.marine.usf.edu:8080/thredds/dodsC/WFS_SWAN_NF_model/USF_Ocean_Circulation_Group_West_Florida_Shelf_Daily_SWAN_Nowcast_Forecast_Wave_Model_Data_best.ncd

06:16:30 INFO: ****** Downloading to file 2014-07-07/2014-07-07-HYCOM.nc ******
06:16:38 INFO: [Land   ] I-295 Bridge, St Johns River, FL
06:16:41 INFO: [Land   ] Red Bay Point, St Johns River, FL
06:16:45 INFO: [Land   ] Tolomato River station
06:16:50 INFO: [Land   ] Shell Point station
06:16:58 INFO: [Land   ] Cherry Grove Pier, N. Myrtle Beach, SC
06:17:02 INFO: [Land   ] Gulf of Mexico station
06:17:05 INFO: [Land   ] Shell Point
06:17:13 INFO: [Land   ] St Lucie Inlet station
06:17:17 INFO: [Land   ] Redfish Pass station
06:17:20 INFO: [Land   ] fau_lobo_1
06:17:23 INFO: [Water  ] CORMP ILM3, Wrightsville Beach Offshore, NC
06:17:23 INFO: [No Data] Fort Myers station
06:17:27 INFO: [Water  ] usf_c10_imet
06:17:31 INFO: [Water  ] CAROCOOPS SUN2, Sunset Nearshore, NC
06:17:33 INFO: [Land   ] Bing's Landing station
06:17:36 INFO: [Water  ] CAROCOOPS CAP2, Capers Island Nearshore, SC
06:17:40 INFO: [Land   ] Tarpon Bay station
06:17:43 INFO: [Water  ] CAROCOOPS FRP2, Fripp Nearshore, SC
06:17:46 INFO: [Land   ] 2nd Ave North Pier, Myrtle Beach, SC
06:17:50 INFO: [Land   ] Apache Pier, Myrtle Beach, SC
06:17:50 INFO: Finished processing [HYCOM]: http://crow.marine.usf.edu:8080/thredds/dodsC/WFS_SWAN_NF_model/USF_Ocean_Circulation_Group_West_Florida_Shelf_Daily_SWAN_Nowcast_Forecast_Wave_Model_Data_best.ncd

06:17:50 INFO: **** Downloading to file 2014-07-07/2014-07-07-USF_ROMS.nc *****
06:17:50 INFO: [No Data] I-295 Bridge, St Johns River, FL
06:17:50 INFO: [No Data] Red Bay Point, St Johns River, FL
06:17:50 INFO: [No Data] Tolomato River station
06:17:56 INFO: [Water  ] Shell Point station
06:17:56 INFO: [No Data] Cherry Grove Pier, N. Myrtle Beach, SC
06:18:02 INFO: [Water  ] Gulf of Mexico station
06:18:06 INFO: [Water  ] Shell Point
06:18:06 INFO: [No Data] St Lucie Inlet station
06:18:10 INFO: [Water  ] Redfish Pass station
06:18:10 INFO: [No Data] fau_lobo_1
06:18:10 INFO: [No Data] CORMP ILM3, Wrightsville Beach Offshore, NC
06:18:10 INFO: [No Data] Fort Myers station
06:18:15 INFO: [Water  ] usf_c10_imet
06:18:15 INFO: [No Data] CAROCOOPS SUN2, Sunset Nearshore, NC
06:18:15 INFO: [No Data] Bing's Landing station
06:18:15 INFO: [No Data] CAROCOOPS CAP2, Capers Island Nearshore, SC
06:18:20 INFO: [Water  ] Tarpon Bay station
06:18:20 INFO: [No Data] CAROCOOPS FRP2, Fripp Nearshore, SC
06:18:20 INFO: [No Data] 2nd Ave North Pier, Myrtle Beach, SC
06:18:20 INFO: [No Data] Apache Pier, Myrtle Beach, SC
06:18:33 INFO: Finished processing [USF_ROMS]: http://crow.marine.usf.edu:8080/thredds/dodsC/WFS_SWAN_NF_model/USF_Ocean_Circulation_Group_West_Florida_Shelf_Daily_SWAN_Nowcast_Forecast_Wave_Model_Data_best.ncd

06:18:33 INFO: **** Downloading to file 2014-07-07/2014-07-07-USF_FVCOM.nc ****
06:18:33 INFO: [No Data] I-295 Bridge, St Johns River, FL
06:18:33 INFO: [No Data] Red Bay Point, St Johns River, FL
06:18:33 INFO: [No Data] Tolomato River station
06:18:43 INFO: [Water  ] Shell Point station
06:18:43 INFO: [No Data] Cherry Grove Pier, N. Myrtle Beach, SC
06:18:53 INFO: [Water  ] Gulf of Mexico station
06:19:04 INFO: [Water  ] Shell Point
06:19:04 INFO: [No Data] St Lucie Inlet station
06:19:10 INFO: [Water  ] Redfish Pass station
06:19:10 INFO: [No Data] fau_lobo_1
06:19:10 INFO: [No Data] CORMP ILM3, Wrightsville Beach Offshore, NC
06:20:06 INFO: [Land   ] Fort Myers station
06:20:12 INFO: [Water  ] usf_c10_imet
06:20:12 INFO: [No Data] CAROCOOPS SUN2, Sunset Nearshore, NC
06:20:12 INFO: [No Data] Bing's Landing station
06:20:12 INFO: [No Data] CAROCOOPS CAP2, Capers Island Nearshore, SC
06:20:18 INFO: [Water  ] Tarpon Bay station
06:20:18 INFO: [No Data] CAROCOOPS FRP2, Fripp Nearshore, SC
06:20:18 INFO: [No Data] 2nd Ave North Pier, Myrtle Beach, SC
06:20:18 INFO: [No Data] Apache Pier, Myrtle Beach, SC
06:20:18 INFO: Finished processing [USF_FVCOM]: http://crow.marine.usf.edu:8080/thredds/dodsC/WFS_SWAN_NF_model/USF_Ocean_Circulation_Group_West_Florida_Shelf_Daily_SWAN_Nowcast_Forecast_Wave_Model_Data_best.ncd

06:20:18 INFO: **** Downloading to file 2014-07-07/2014-07-07-COAWST_4.nc *****
06:20:41 INFO: [Land   ] I-295 Bridge, St Johns River, FL
06:21:02 INFO: [Land   ] Red Bay Point, St Johns River, FL
06:21:12 INFO: [Land   ] Tolomato River station
06:21:24 INFO: [Water  ] Shell Point station
06:21:43 INFO: [Land   ] Cherry Grove Pier, N. Myrtle Beach, SC
06:21:53 INFO: [Water  ] Gulf of Mexico station
06:22:17 INFO: [Water  ] Shell Point
06:22:28 INFO: [Water  ] St Lucie Inlet station
06:22:38 INFO: [Water  ] Redfish Pass station
06:22:58 INFO: [Water  ] fau_lobo_1
06:23:09 INFO: [Water  ] CORMP ILM3, Wrightsville Beach Offshore, NC
06:23:19 INFO: [Land   ] Fort Myers station
06:23:29 INFO: [Water  ] usf_c10_imet
06:23:40 INFO: [Water  ] CAROCOOPS SUN2, Sunset Nearshore, NC
06:23:50 INFO: [Land   ] Bing's Landing station
06:24:05 INFO: [Water  ] CAROCOOPS CAP2, Capers Island Nearshore, SC
06:24:15 INFO: [Water  ] Tarpon Bay station
06:24:25 INFO: [Water  ] CAROCOOPS FRP2, Fripp Nearshore, SC
06:24:35 INFO: [Water  ] 2nd Ave North Pier, Myrtle Beach, SC
06:24:45 INFO: [Land   ] Apache Pier, Myrtle Beach, SC
06:25:48 INFO: Finished processing [COAWST_4]: http://crow.marine.usf.edu:8080/thredds/dodsC/WFS_SWAN_NF_model/USF_Ocean_Circulation_Group_West_Florida_Shelf_Daily_SWAN_Nowcast_Forecast_Wave_Model_Data_best.ncd

06:25:48 INFO: 103.63 minutes
06:25:48 INFO: EOF
