07:21:39 INFO: ************Saving data inside directory 2014-07-07*************
07:21:39 INFO: *********************** Run information ************************
07:21:39 INFO: Run date: 2015-03-10 22:21:39
07:21:39 INFO: Download start: 2014-06-30 12:00:00
07:21:39 INFO: Download stop: 2014-07-07 12:00:00
07:21:39 INFO: Bounding box: -87.40, 24.25,-74.70, 36.70
07:21:39 INFO: *********************** Software version ***********************
07:21:39 INFO: Iris version: 1.7.2-DEV
07:21:39 INFO: owslib version: 0.8.13
07:21:39 INFO: pyoos version: 0.6.2
07:21:43 INFO: ********************* Catalog information **********************
07:21:43 INFO: URL: http://www.ngdc.noaa.gov/geoportal/csw
07:21:43 INFO: CSW version: 2.0.2
07:21:43 INFO: Number of datasets available: 10
07:21:43 INFO: ***************************** CSW ******************************
07:21:43 INFO: USF FVCOM - Nowcast Aggregation
07:21:43 INFO: ROMS/TOMS 3.0 - New Floria Shelf Application
07:21:43 INFO: ROMS/TOMS 3.0 - South-Atlantic Bight and Gulf of Mexico
07:21:43 INFO: COAWST Forecast System : USGS : US East Coast and Gulf of Mexico (Experimental)
07:21:43 INFO: ROMS ESPRESSO Real-Time Operational IS4DVAR Forecast System Version 2 (NEW) 2013-present FMRC History (Best)
07:21:43 INFO: HYbrid Coordinate Ocean Model (HYCOM): Global
07:21:43 INFO: National Data Buoy Center SOS
07:21:43 INFO: Aquarius Level 3 Sea Surface Salinity Standard Mapped Image Daily Data V3.0
07:21:43 INFO: Aquarius Level 3 Sea Surface Salinity Standard Mapped Image Monthly Data V3.0
07:21:43 INFO: Aquarius Level 3 Sea Surface Salinity Standard Mapped Image Weekly Data V3.0
07:21:43 INFO: ***************************** DAP ******************************
07:21:43 INFO: http://crow.marine.usf.edu:8080/thredds/dodsC/FVCOM-Nowcast-Agg.nc.html
07:21:43 INFO: http://crow.marine.usf.edu:8080/thredds/dodsC/WFS_ROMS_NF_model/USF_Ocean_Circulation_Group_West_Florida_Shelf_Daily_ROMS_Nowcast_Forecast_Model_Data_best.ncd.html
07:21:43 INFO: http://geoport.whoi.edu/thredds/dodsC/coawst_4/use/fmrc/coawst_4_use_best.ncd.html
07:21:43 INFO: http://omgsrv1.meas.ncsu.edu:8080/thredds/dodsC/fmrc/sabgom/SABGOM_Forecast_Model_Run_Collection_best.ncd.html
07:21:43 INFO: http://oos.soest.hawaii.edu/thredds/dodsC/pacioos/hycom/global.html
07:21:43 INFO: http://tds.marine.rutgers.edu/thredds/dodsC/roms/espresso/2013_da/his_Best/ESPRESSO_Real-Time_v2_History_Best_Available_best.ncd.html
07:21:43 INFO: http://thredds.axiomalaska.com/thredds/dodsC/Aquarius_V3_SSS_Daily.nc.html
07:21:43 INFO: http://thredds.axiomalaska.com/thredds/dodsC/Aquarius_V3_SSS_Monthly.nc.html
07:21:43 INFO: http://thredds.axiomalaska.com/thredds/dodsC/Aquarius_V3_SSS_Weekly.nc.html
07:21:43 INFO: ***************************** SOS ******************************
07:21:43 INFO: http://sdf.ndbc.noaa.gov/sos/server.php?service=SOS&request=GetCapabilities&acceptVersions=1.0.0
07:21:43 WARNING: SABGOM_ARCHIVE not in the NGDC csw
07:21:43 WARNING: USEAST not in the NGDC csw
07:21:43 WARNING: USF_SWAN not in the NGDC csw
07:21:48 WARNING: Cannot get cube for: http://129.252.139.124/thredds/dodsC/fit.sispnj.met.nc
Cannot find ['sea_water_salinity', 'sea_surface_salinity', 'sea_water_absolute_salinity', 'sea_water_practical_salinity'] in http://129.252.139.124/thredds/dodsC/fit.sispnj.met.nc.
07:21:57 WARNING: Cannot get cube for: http://129.252.139.124/thredds/dodsC/usf.nfb.ngwlms.nc
Cannot find ['sea_water_salinity', 'sea_surface_salinity', 'sea_water_absolute_salinity', 'sea_water_practical_salinity'] in http://129.252.139.124/thredds/dodsC/usf.nfb.ngwlms.nc.
07:22:00 WARNING: Cannot get cube for: http://129.252.139.124/thredds/dodsC/usf.tas.ngwlms.nc
Cannot find ['sea_water_salinity', 'sea_surface_salinity', 'sea_water_absolute_salinity', 'sea_water_practical_salinity'] in http://129.252.139.124/thredds/dodsC/usf.tas.ngwlms.nc.
07:22:04 WARNING: Cannot get cube for: http://129.252.139.124/thredds/dodsC/usf.apk.ngwlms.nc
Cannot find ['sea_water_salinity', 'sea_surface_salinity', 'sea_water_absolute_salinity', 'sea_water_practical_salinity'] in http://129.252.139.124/thredds/dodsC/usf.apk.ngwlms.nc.
07:22:07 WARNING: Cannot get cube for: http://129.252.139.124/thredds/dodsC/usf.c21.weatherpak.nc
Cannot find ['sea_water_salinity', 'sea_surface_salinity', 'sea_water_absolute_salinity', 'sea_water_practical_salinity'] in http://129.252.139.124/thredds/dodsC/usf.c21.weatherpak.nc.
07:22:16 WARNING: Cannot get cube for: http://129.252.139.124/thredds/dodsC/usf.bcp.ngwlms.nc
Cannot find ['sea_water_salinity', 'sea_surface_salinity', 'sea_water_absolute_salinity', 'sea_water_practical_salinity'] in http://129.252.139.124/thredds/dodsC/usf.bcp.ngwlms.nc.
07:22:19 WARNING: Cannot get cube for: http://129.252.139.124/thredds/dodsC/usf.fhp.ngwlms.nc
Cannot find ['sea_water_salinity', 'sea_surface_salinity', 'sea_water_absolute_salinity', 'sea_water_practical_salinity'] in http://129.252.139.124/thredds/dodsC/usf.fhp.ngwlms.nc.
07:22:22 WARNING: Cannot get cube for: http://129.252.139.124/thredds/dodsC/usf.c10.mcat.nc
istart must be different from istop! Got istart 48233 and  istop 48233
07:22:28 WARNING: Cannot get cube for: http://129.252.139.124/thredds/dodsC/c10_salinity_water_temp.nc
'Expected to find exactly 1  coordinate, but found none.'
07:22:34 WARNING: Cannot get cube for: http://129.252.139.124/thredds/dodsC/QC_C10_Temp_full.nc
Cannot find ['sea_water_salinity', 'sea_surface_salinity', 'sea_water_absolute_salinity', 'sea_water_practical_salinity'] in http://129.252.139.124/thredds/dodsC/QC_C10_Temp_full.nc.
07:22:38 WARNING: Cannot get cube for: http://129.252.139.124/thredds/dodsC/QC_C10_Sal_full.nc
'Expected to find exactly 1  coordinate, but found none.'
07:22:40 WARNING: Cannot get cube for: http://129.252.139.124/thredds/dodsC/usf.c12.mcat.nc
istart must be different from istop! Got istart 18711 and  istop 18711
07:22:43 WARNING: Cannot get cube for: http://129.252.139.124/thredds/dodsC/usf.c13.mcat.nc
istart must be different from istop! Got istart 18099 and  istop 18099
07:22:45 WARNING: Cannot get cube for: http://129.252.139.124/thredds/dodsC/usf.c10.mcat_2011.nc
istart must be different from istop! Got istart 26303 and  istop 26303
07:22:47 WARNING: Cannot get cube for: http://129.252.139.124/thredds/dodsC/usf.c12.mcat_2011.nc
istart must be different from istop! Got istart 26303 and  istop 26303
07:22:50 WARNING: Cannot get cube for: http://129.252.139.124/thredds/dodsC/usf.c13.mcat_2011.nc
istart must be different from istop! Got istart 26303 and  istop 26303
07:22:55 WARNING: Cannot get cube for: http://129.252.139.124/thredds/dodsC/carocoops.frp2.buoy.nc
Cannot find ['sea_water_salinity', 'sea_surface_salinity', 'sea_water_absolute_salinity', 'sea_water_practical_salinity'] in http://129.252.139.124/thredds/dodsC/carocoops.frp2.buoy.nc.
07:22:58 WARNING: Cannot get cube for: http://129.252.139.124/thredds/dodsC/carocoops.cap2.buoy.nc
Cannot find ['sea_water_salinity', 'sea_surface_salinity', 'sea_water_absolute_salinity', 'sea_water_practical_salinity'] in http://129.252.139.124/thredds/dodsC/carocoops.cap2.buoy.nc.
07:23:10 WARNING: Cannot get cube for: http://129.252.139.124/thredds/dodsC/cormp.ilm1.buoy.nc
istart must be different from istop! Got istart 1443 and  istop 1443
07:23:13 WARNING: Cannot get cube for: http://129.252.139.124/thredds/dodsC/cormp.lej3.buoy.nc
istart must be different from istop! Got istart 91490 and  istop 91490
07:23:39 WARNING: Cannot get cube for: http://129.252.139.124/thredds/dodsC/fldep.poncedeleonsouth..nc
Cannot find ['sea_water_salinity', 'sea_surface_salinity', 'sea_water_absolute_salinity', 'sea_water_practical_salinity'] in http://129.252.139.124/thredds/dodsC/fldep.poncedeleonsouth..nc.
07:23:45 WARNING: Cannot get cube for: http://129.252.139.124/thredds/dodsC/fldep.redbaypoint..nc
Cannot find ['sea_water_salinity', 'sea_surface_salinity', 'sea_water_absolute_salinity', 'sea_water_practical_salinity'] in http://129.252.139.124/thredds/dodsC/fldep.redbaypoint..nc.
07:23:54 WARNING: Cannot get cube for: http://129.252.139.124/thredds/dodsC/fldep.naplesbay..nc
Cannot find ['sea_water_salinity', 'sea_surface_salinity', 'sea_water_absolute_salinity', 'sea_water_practical_salinity'] in http://129.252.139.124/thredds/dodsC/fldep.naplesbay..nc.
07:23:58 WARNING: Cannot get cube for: http://129.252.139.124/thredds/dodsC/fldep.gordonriverinlet..nc
Cannot find ['sea_water_salinity', 'sea_surface_salinity', 'sea_water_absolute_salinity', 'sea_water_practical_salinity'] in http://129.252.139.124/thredds/dodsC/fldep.gordonriverinlet..nc.
07:24:02 WARNING: Cannot get cube for: http://129.252.139.124/thredds/dodsC/fldep.melbourne..nc
Cannot find ['sea_water_salinity', 'sea_surface_salinity', 'sea_water_absolute_salinity', 'sea_water_practical_salinity'] in http://129.252.139.124/thredds/dodsC/fldep.melbourne..nc.
07:24:07 WARNING: Cannot get cube for: http://129.252.139.124/thredds/dodsC/fldep.binneydock..nc
Cannot find ['sea_water_salinity', 'sea_surface_salinity', 'sea_water_absolute_salinity', 'sea_water_practical_salinity'] in http://129.252.139.124/thredds/dodsC/fldep.binneydock..nc.
07:24:11 WARNING: Cannot get cube for: http://129.252.139.124/thredds/dodsC/fldep.verobeach..nc
Cannot find ['sea_water_salinity', 'sea_surface_salinity', 'sea_water_absolute_salinity', 'sea_water_practical_salinity'] in http://129.252.139.124/thredds/dodsC/fldep.verobeach..nc.
07:24:27 WARNING: Cannot get cube for: http://129.252.139.124/thredds/dodsC/enp.wiwf1.met.nc
Cannot find ['sea_water_salinity', 'sea_surface_salinity', 'sea_water_absolute_salinity', 'sea_water_practical_salinity'] in http://129.252.139.124/thredds/dodsC/enp.wiwf1.met.nc.
07:24:30 WARNING: Cannot get cube for: http://129.252.139.124/thredds/dodsC/enp.lbrf1.met.nc
Cannot find ['sea_water_salinity', 'sea_surface_salinity', 'sea_water_absolute_salinity', 'sea_water_practical_salinity'] in http://129.252.139.124/thredds/dodsC/enp.lbrf1.met.nc.
07:24:34 WARNING: Cannot get cube for: http://129.252.139.124/thredds/dodsC/enp.bobf1.met.nc
Cannot find ['sea_water_salinity', 'sea_surface_salinity', 'sea_water_absolute_salinity', 'sea_water_practical_salinity'] in http://129.252.139.124/thredds/dodsC/enp.bobf1.met.nc.
07:24:37 WARNING: Cannot get cube for: http://129.252.139.124/thredds/dodsC/enp.trrf1.met.nc
Cannot find ['sea_water_salinity', 'sea_surface_salinity', 'sea_water_absolute_salinity', 'sea_water_practical_salinity'] in http://129.252.139.124/thredds/dodsC/enp.trrf1.met.nc.
07:24:41 WARNING: Cannot get cube for: http://129.252.139.124/thredds/dodsC/enp.wwef1.met.nc
Cannot find ['sea_water_salinity', 'sea_surface_salinity', 'sea_water_absolute_salinity', 'sea_water_practical_salinity'] in http://129.252.139.124/thredds/dodsC/enp.wwef1.met.nc.
07:24:44 WARNING: Cannot get cube for: http://129.252.139.124/thredds/dodsC/enp.lrif1.met.nc
Cannot find ['sea_water_salinity', 'sea_surface_salinity', 'sea_water_absolute_salinity', 'sea_water_practical_salinity'] in http://129.252.139.124/thredds/dodsC/enp.lrif1.met.nc.
07:24:48 WARNING: Cannot get cube for: http://129.252.139.124/thredds/dodsC/enp.bwsf1.met.nc
Cannot find ['sea_water_salinity', 'sea_surface_salinity', 'sea_water_absolute_salinity', 'sea_water_practical_salinity'] in http://129.252.139.124/thredds/dodsC/enp.bwsf1.met.nc.
07:24:51 WARNING: Cannot get cube for: http://129.252.139.124/thredds/dodsC/enp.pkyf1.met.nc
Cannot find ['sea_water_salinity', 'sea_surface_salinity', 'sea_water_absolute_salinity', 'sea_water_practical_salinity'] in http://129.252.139.124/thredds/dodsC/enp.pkyf1.met.nc.
07:24:55 WARNING: Cannot get cube for: http://129.252.139.124/thredds/dodsC/enp.lmdf1.met.nc
Cannot find ['sea_water_salinity', 'sea_surface_salinity', 'sea_water_absolute_salinity', 'sea_water_practical_salinity'] in http://129.252.139.124/thredds/dodsC/enp.lmdf1.met.nc.
07:24:59 WARNING: Cannot get cube for: http://129.252.139.124/thredds/dodsC/enp.cnbf1.met.nc
Cannot find ['sea_water_salinity', 'sea_surface_salinity', 'sea_water_absolute_salinity', 'sea_water_practical_salinity'] in http://129.252.139.124/thredds/dodsC/enp.cnbf1.met.nc.
07:25:02 WARNING: Cannot get cube for: http://129.252.139.124/thredds/dodsC/enp.hcef1.met.nc
Cannot find ['sea_water_salinity', 'sea_surface_salinity', 'sea_water_absolute_salinity', 'sea_water_practical_salinity'] in http://129.252.139.124/thredds/dodsC/enp.hcef1.met.nc.
07:25:06 WARNING: Cannot get cube for: http://129.252.139.124/thredds/dodsC/enp.jkyf1.met.nc
Cannot find ['sea_water_salinity', 'sea_surface_salinity', 'sea_water_absolute_salinity', 'sea_water_practical_salinity'] in http://129.252.139.124/thredds/dodsC/enp.jkyf1.met.nc.
07:25:09 WARNING: Cannot get cube for: http://129.252.139.124/thredds/dodsC/enp.wrbf1.met.nc
Cannot find ['sea_water_salinity', 'sea_surface_salinity', 'sea_water_absolute_salinity', 'sea_water_practical_salinity'] in http://129.252.139.124/thredds/dodsC/enp.wrbf1.met.nc.
07:25:13 WARNING: Cannot get cube for: http://129.252.139.124/thredds/dodsC/enp.gbif1.met.nc
Cannot find ['sea_water_salinity', 'sea_surface_salinity', 'sea_water_absolute_salinity', 'sea_water_practical_salinity'] in http://129.252.139.124/thredds/dodsC/enp.gbif1.met.nc.
07:25:18 WARNING: Cannot get cube for: http://129.252.139.124/thredds/dodsC/enp.ppta1.met.nc
Cannot find ['sea_water_salinity', 'sea_surface_salinity', 'sea_water_absolute_salinity', 'sea_water_practical_salinity'] in http://129.252.139.124/thredds/dodsC/enp.ppta1.met.nc.
07:25:22 WARNING: Cannot get cube for: http://129.252.139.124/thredds/dodsC/enp.bdvf1.met.nc
Cannot find ['sea_water_salinity', 'sea_surface_salinity', 'sea_water_absolute_salinity', 'sea_water_practical_salinity'] in http://129.252.139.124/thredds/dodsC/enp.bdvf1.met.nc.
07:25:26 WARNING: Cannot get cube for: http://129.252.139.124/thredds/dodsC/enp.lrkf1.met.nc
Cannot find ['sea_water_salinity', 'sea_surface_salinity', 'sea_water_absolute_salinity', 'sea_water_practical_salinity'] in http://129.252.139.124/thredds/dodsC/enp.lrkf1.met.nc.
07:25:30 WARNING: Cannot get cube for: http://129.252.139.124/thredds/dodsC/enp.bnkf1.met.nc
Cannot find ['sea_water_salinity', 'sea_surface_salinity', 'sea_water_absolute_salinity', 'sea_water_practical_salinity'] in http://129.252.139.124/thredds/dodsC/enp.bnkf1.met.nc.
07:25:35 WARNING: Cannot get cube for: http://129.252.139.124/thredds/dodsC/enp.gbtf1.met.nc
Cannot find ['sea_water_salinity', 'sea_surface_salinity', 'sea_water_absolute_salinity', 'sea_water_practical_salinity'] in http://129.252.139.124/thredds/dodsC/enp.gbtf1.met.nc.
07:25:39 WARNING: Cannot get cube for: http://129.252.139.124/thredds/dodsC/enp.tcvf1.met.nc
Cannot find ['sea_water_salinity', 'sea_surface_salinity', 'sea_water_absolute_salinity', 'sea_water_practical_salinity'] in http://129.252.139.124/thredds/dodsC/enp.tcvf1.met.nc.
07:25:43 WARNING: Cannot get cube for: http://129.252.139.124/thredds/dodsC/enp.canf1.met.nc
Cannot find ['sea_water_salinity', 'sea_surface_salinity', 'sea_water_absolute_salinity', 'sea_water_practical_salinity'] in http://129.252.139.124/thredds/dodsC/enp.canf1.met.nc.
07:25:47 WARNING: Cannot get cube for: http://129.252.139.124/thredds/dodsC/enp.lbsf1.met.nc
Cannot find ['sea_water_salinity', 'sea_surface_salinity', 'sea_water_absolute_salinity', 'sea_water_practical_salinity'] in http://129.252.139.124/thredds/dodsC/enp.lbsf1.met.nc.
07:25:50 WARNING: Cannot get cube for: http://129.252.139.124/thredds/dodsC/enp.mukf1.met.nc
Cannot find ['sea_water_salinity', 'sea_surface_salinity', 'sea_water_absolute_salinity', 'sea_water_practical_salinity'] in http://129.252.139.124/thredds/dodsC/enp.mukf1.met.nc.
07:25:54 WARNING: Cannot get cube for: http://129.252.139.124/thredds/dodsC/enp.dkkf1.met.nc
Cannot find ['sea_water_salinity', 'sea_surface_salinity', 'sea_water_absolute_salinity', 'sea_water_practical_salinity'] in http://129.252.139.124/thredds/dodsC/enp.dkkf1.met.nc.
07:25:57 WARNING: Cannot get cube for: http://129.252.139.124/thredds/dodsC/enp.cwaf1.met.nc
Cannot find ['sea_water_salinity', 'sea_surface_salinity', 'sea_water_absolute_salinity', 'sea_water_practical_salinity'] in http://129.252.139.124/thredds/dodsC/enp.cwaf1.met.nc.
07:26:18 INFO: ********************* Collector offerings **********************
07:26:18 INFO: NOAA.NOS.CO-OPS SOS: 1035 offerings
07:26:22 INFO: SOS URL request: http://opendap.co-ops.nos.noaa.gov/ioos-dif-sos/SOS?eventTime=2014-06-30T12%3A00%3A00Z&service=SOS&offering=urn%3Aioos%3Anetwork%3ANOAA.NOS.CO-OPS%3AMetActive&request=GetObservation&version=1.0.0&responseFormat=text%2Fcsv&featureOfInterest=BBOX%3A-87.4%2C24.25%2C-74.7%2C36.7&observedProperty=salinity
07:27:57 INFO: ************************* Observations *************************
07:27:57 INFO: **** Downloading to file 2014-07-07/2014-07-07-OBS_DATA.nc *****
07:28:11 INFO: ********************* SECOORA Observations *********************
07:28:11 INFO:  Downloading to file 2014-07-07/2014-07-07-SECOORA_OBS_DATA.nc *
07:28:11 INFO: **************************** Models ****************************
07:28:11 INFO: 
[Reading url 1/12]: http://crow.marine.usf.edu:8080/thredds/dodsC/FVCOM-Nowcast-Agg.nc
07:33:09 WARNING: Cannot get cube for: http://crow.marine.usf.edu:8080/thredds/dodsC/FVCOM-Nowcast-Agg.nc
Timed out!
07:33:09 INFO: 
[Reading url 2/12]: http://crow.marine.usf.edu:8080/thredds/dodsC/WFS_ROMS_NF_model/USF_Ocean_Circulation_Group_West_Florida_Shelf_Daily_ROMS_Nowcast_Forecast_Model_Data_best.ncd
07:33:21 INFO: 
[Reading url 3/12]: http://geoport.whoi.edu/thredds/dodsC/coawst_4/use/fmrc/coawst_4_use_best.ncd
07:33:46 INFO: 
[Reading url 4/12]: http://omgarch1.meas.ncsu.edu:8080/thredds/dodsC/fmrc/sabgom/SABGOM_Forecast_Model_Run_Collection_best.ncd
07:33:58 INFO: 
[Reading url 5/12]: http://oos.soest.hawaii.edu/thredds/dodsC/pacioos/hycom/global
07:34:03 INFO: 
[Reading url 6/12]: http://tds.marine.rutgers.edu/thredds/dodsC/roms/espresso/2013_da/his_Best/ESPRESSO_Real-Time_v2_History_Best_Available_best.ncd
07:34:13 INFO: 
[Reading url 7/12]: http://thredds.axiomalaska.com/thredds/dodsC/Aquarius_V3_SSS_Daily.nc
07:34:19 WARNING: Cannot get cube for: http://thredds.axiomalaska.com/thredds/dodsC/Aquarius_V3_SSS_Daily.nc
istart must be different from istop! Got istart 992 and  istop 992
07:34:19 INFO: 
[Reading url 8/12]: http://thredds.axiomalaska.com/thredds/dodsC/Aquarius_V3_SSS_Monthly.nc
07:34:22 WARNING: Cannot get cube for: http://thredds.axiomalaska.com/thredds/dodsC/Aquarius_V3_SSS_Monthly.nc
istart must be different from istop! Got istart 35 and  istop 35
07:34:22 INFO: 
[Reading url 9/12]: http://thredds.axiomalaska.com/thredds/dodsC/Aquarius_V3_SSS_Weekly.nc
07:34:29 WARNING: Cannot get cube for: http://thredds.axiomalaska.com/thredds/dodsC/Aquarius_V3_SSS_Weekly.nc
istart must be different from istop! Got istart 149 and  istop 149
07:34:29 INFO: 
[Reading url 10/12]: http://omgarch1.meas.ncsu.edu:8080/thredds/dodsC/fmrc/sabgom/SABGOM_Forecast_Model_Run_Collection_best.ncd
07:34:42 INFO: 
[Reading url 11/12]: http://omgsrv1.meas.ncsu.edu:8080/thredds/dodsC/fmrc/us_east/US_East_Forecast_Model_Run_Collection_best.ncd
07:34:52 WARNING: Cannot get cube for: http://omgsrv1.meas.ncsu.edu:8080/thredds/dodsC/fmrc/us_east/US_East_Forecast_Model_Run_Collection_best.ncd
istart must be different from istop! Got istart 0 and  istop 0
07:34:52 INFO: 
[Reading url 12/12]: http://crow.marine.usf.edu:8080/thredds/dodsC/WFS_SWAN_NF_model/USF_Ocean_Circulation_Group_West_Florida_Shelf_Daily_SWAN_Nowcast_Forecast_Wave_Model_Data_best.ncd
07:34:53 WARNING: Cannot get cube for: http://crow.marine.usf.edu:8080/thredds/dodsC/WFS_SWAN_NF_model/USF_Ocean_Circulation_Group_West_Florida_Shelf_Daily_SWAN_Nowcast_Forecast_Wave_Model_Data_best.ncd
Cannot find ['sea_water_salinity', 'sea_surface_salinity', 'sea_water_absolute_salinity', 'sea_water_practical_salinity'] in http://crow.marine.usf.edu:8080/thredds/dodsC/WFS_SWAN_NF_model/USF_Ocean_Circulation_Group_West_Florida_Shelf_Daily_SWAN_Nowcast_Forecast_Wave_Model_Data_best.ncd.
07:34:53 INFO: * Downloading to file 2014-07-07/2014-07-07-SABGOM_ARCHIVE.nc **
07:34:57 INFO: [Land   ] Mayport (Bar Pilots Dock), FL
07:34:59 INFO: [Land   ] I-295 Bridge, St Johns River, FL
07:35:02 INFO: [Land   ] Red Bay Point, St Johns River, FL
07:35:04 INFO: [Land   ] Tolomato River station
07:35:07 INFO: [Land   ] Shell Point station
07:35:09 INFO: [Land   ] Cherry Grove Pier, N. Myrtle Beach, SC
07:35:13 INFO: [Land   ] Gulf of Mexico station
07:35:16 INFO: [Land   ] Shell Point
07:35:20 INFO: [Water  ] St Lucie Inlet station
07:35:25 INFO: [Water  ] Redfish Pass station
07:35:27 INFO: [Land   ] fau_lobo_1
07:35:32 INFO: [Water  ] CORMP ILM3, Wrightsville Beach Offshore, NC
07:35:34 INFO: [Land   ] Fort Myers station
07:35:38 INFO: [Water  ] CAROCOOPS SUN2, Sunset Nearshore, NC
07:35:40 INFO: [Water  ] CORMP ILM2, Wrightsville Beach Nearshore, NC
07:35:43 INFO: [Land   ] Bing&#39;s Landing station
07:35:47 INFO: [Land   ] 2nd Ave North Pier, Myrtle Beach, SC
07:35:49 INFO: [Water  ] Tarpon Bay station
07:35:51 INFO: [Land   ] Apache Pier, Myrtle Beach, SC
07:36:30 INFO: Finished processing [SABGOM_ARCHIVE]: http://crow.marine.usf.edu:8080/thredds/dodsC/WFS_SWAN_NF_model/USF_Ocean_Circulation_Group_West_Florida_Shelf_Daily_SWAN_Nowcast_Forecast_Wave_Model_Data_best.ncd

07:36:30 INFO: ****** Downloading to file 2014-07-07/2014-07-07-HYCOM.nc ******
07:38:01 INFO: [Land   ] Mayport (Bar Pilots Dock), FL
07:38:04 INFO: [Land   ] I-295 Bridge, St Johns River, FL
07:38:07 INFO: [Land   ] Red Bay Point, St Johns River, FL
07:38:10 INFO: [Land   ] Tolomato River station
07:38:18 INFO: [Land   ] Shell Point station
07:38:37 INFO: [Land   ] Cherry Grove Pier, N. Myrtle Beach, SC
07:38:40 INFO: [Land   ] Gulf of Mexico station
07:38:43 INFO: [Land   ] Shell Point
07:38:45 INFO: [Land   ] St Lucie Inlet station
07:38:48 INFO: [Land   ] Redfish Pass station
07:38:51 INFO: [Land   ] fau_lobo_1
07:38:54 INFO: [Water  ] CORMP ILM3, Wrightsville Beach Offshore, NC
07:38:54 INFO: [No Data] Fort Myers station
07:38:56 INFO: [Water  ] CAROCOOPS SUN2, Sunset Nearshore, NC
07:38:56 INFO: [No Data] CORMP ILM2, Wrightsville Beach Nearshore, NC
07:38:59 INFO: [Land   ] Bing&#39;s Landing station
07:39:01 INFO: [Land   ] 2nd Ave North Pier, Myrtle Beach, SC
07:39:07 INFO: [Land   ] Tarpon Bay station
07:39:10 INFO: [Land   ] Apache Pier, Myrtle Beach, SC
07:39:10 INFO: Finished processing [HYCOM]: http://crow.marine.usf.edu:8080/thredds/dodsC/WFS_SWAN_NF_model/USF_Ocean_Circulation_Group_West_Florida_Shelf_Daily_SWAN_Nowcast_Forecast_Wave_Model_Data_best.ncd

07:39:10 INFO: **** Downloading to file 2014-07-07/2014-07-07-USF_ROMS.nc *****
07:39:10 INFO: [No Data] Mayport (Bar Pilots Dock), FL
07:39:10 INFO: [No Data] I-295 Bridge, St Johns River, FL
07:39:10 INFO: [No Data] Red Bay Point, St Johns River, FL
07:39:10 INFO: [No Data] Tolomato River station
07:39:12 INFO: [Water  ] Shell Point station
07:39:12 INFO: [No Data] Cherry Grove Pier, N. Myrtle Beach, SC
07:39:13 INFO: [Water  ] Gulf of Mexico station
07:39:17 INFO: [Water  ] Shell Point
07:39:17 INFO: [No Data] St Lucie Inlet station
07:39:19 INFO: [Water  ] Redfish Pass station
07:39:19 INFO: [No Data] fau_lobo_1
07:39:19 INFO: [No Data] CORMP ILM3, Wrightsville Beach Offshore, NC
07:39:19 INFO: [No Data] Fort Myers station
07:39:19 INFO: [No Data] CAROCOOPS SUN2, Sunset Nearshore, NC
07:39:19 INFO: [No Data] CORMP ILM2, Wrightsville Beach Nearshore, NC
07:39:19 INFO: [No Data] Bing&#39;s Landing station
07:39:19 INFO: [No Data] 2nd Ave North Pier, Myrtle Beach, SC
07:39:20 INFO: [Water  ] Tarpon Bay station
07:39:20 INFO: [No Data] Apache Pier, Myrtle Beach, SC
07:39:49 INFO: Finished processing [USF_ROMS]: http://crow.marine.usf.edu:8080/thredds/dodsC/WFS_SWAN_NF_model/USF_Ocean_Circulation_Group_West_Florida_Shelf_Daily_SWAN_Nowcast_Forecast_Wave_Model_Data_best.ncd

07:39:49 INFO: **** Downloading to file 2014-07-07/2014-07-07-COAWST_4.nc *****
07:39:59 INFO: [Land   ] Mayport (Bar Pilots Dock), FL
07:40:16 INFO: [Land   ] I-295 Bridge, St Johns River, FL
07:40:23 INFO: [Land   ] Red Bay Point, St Johns River, FL
07:40:30 INFO: [Land   ] Tolomato River station
07:40:44 INFO: [Land   ] Shell Point station
07:40:51 INFO: [Land   ] Cherry Grove Pier, N. Myrtle Beach, SC
07:41:05 INFO: [Water  ] Gulf of Mexico station
07:41:11 INFO: [Land   ] Shell Point
07:41:25 INFO: [Water  ] St Lucie Inlet station
07:41:38 INFO: [Water  ] Redfish Pass station
07:41:45 INFO: [Land   ] fau_lobo_1
07:41:51 INFO: [Water  ] CORMP ILM3, Wrightsville Beach Offshore, NC
07:41:58 INFO: [Land   ] Fort Myers station
07:42:04 INFO: [Water  ] CAROCOOPS SUN2, Sunset Nearshore, NC
07:42:17 INFO: [Water  ] CORMP ILM2, Wrightsville Beach Nearshore, NC
07:42:23 INFO: [Land   ] Bing&#39;s Landing station
07:42:36 INFO: [Water  ] 2nd Ave North Pier, Myrtle Beach, SC
07:42:42 INFO: [Water  ] Tarpon Bay station
07:42:48 INFO: [Land   ] Apache Pier, Myrtle Beach, SC
07:44:51 INFO: Finished processing [COAWST_4]: http://crow.marine.usf.edu:8080/thredds/dodsC/WFS_SWAN_NF_model/USF_Ocean_Circulation_Group_West_Florida_Shelf_Daily_SWAN_Nowcast_Forecast_Wave_Model_Data_best.ncd

07:44:51 INFO: **** Downloading to file 2014-07-07/2014-07-07-ESPRESSO.nc *****
07:44:51 INFO: [No Data] Mayport (Bar Pilots Dock), FL
07:44:51 INFO: [No Data] I-295 Bridge, St Johns River, FL
07:44:51 INFO: [No Data] Red Bay Point, St Johns River, FL
07:44:51 INFO: [No Data] Tolomato River station
07:44:51 INFO: [No Data] Shell Point station
07:44:51 INFO: [No Data] Cherry Grove Pier, N. Myrtle Beach, SC
07:44:51 INFO: [No Data] Gulf of Mexico station
07:44:51 INFO: [No Data] Shell Point
07:44:51 INFO: [No Data] St Lucie Inlet station
07:44:51 INFO: [No Data] Redfish Pass station
07:44:51 INFO: [No Data] fau_lobo_1
07:44:51 INFO: [No Data] CORMP ILM3, Wrightsville Beach Offshore, NC
07:44:51 INFO: [No Data] Fort Myers station
07:44:51 INFO: [No Data] CAROCOOPS SUN2, Sunset Nearshore, NC
07:44:51 INFO: [No Data] CORMP ILM2, Wrightsville Beach Nearshore, NC
07:44:51 INFO: [No Data] Bing&#39;s Landing station
07:44:51 INFO: [No Data] 2nd Ave North Pier, Myrtle Beach, SC
07:44:51 INFO: [No Data] Tarpon Bay station
07:44:51 INFO: [No Data] Apache Pier, Myrtle Beach, SC
07:44:51 INFO: Finished processing [ESPRESSO]: http://crow.marine.usf.edu:8080/thredds/dodsC/WFS_SWAN_NF_model/USF_Ocean_Circulation_Group_West_Florida_Shelf_Daily_SWAN_Nowcast_Forecast_Wave_Model_Data_best.ncd

07:44:52 WARNING: /home/filipe/miniconda/envs/SECOORA/lib/python2.7/site-packages/numpy/core/_methods.py:59: RuntimeWarning: Mean of empty slice.
  warnings.warn("Mean of empty slice.", RuntimeWarning)

07:45:03 INFO: 23.45 minutes
07:45:03 INFO: EOF
