01:15:43 INFO: ************Saving data inside directory 2014-07-07*************
01:15:43 INFO: *********************** Run information ************************
01:15:43 INFO: Run date: 2015-10-05 16:15:43
01:15:43 INFO: Download start: 2014-07-01 12:00:00
01:15:43 INFO: Download stop: 2014-07-07 12:00:00
01:15:43 INFO: Bounding box: -87.40, 24.25,-74.70, 36.70
01:15:43 INFO: *********************** Software version ***********************
01:15:43 INFO: Iris version: 1.8.1
01:15:43 INFO: owslib version: 0.9.2
01:15:43 INFO: pyoos version: 0.6.2
01:15:52 INFO: ********************* Catalog information **********************
01:15:52 INFO: URL: http://www.ngdc.noaa.gov/geoportal/csw
01:15:52 INFO: CSW version: 2.0.2
01:15:52 INFO: Number of datasets available: 104
01:15:52 INFO: ***************************** CSW ******************************
01:15:52 INFO: USF FVCOM - Nowcast Aggregation
01:15:52 INFO: ROMS/TOMS 3.0 - New Floria Shelf Application
01:15:52 INFO: ROMS/TOMS 3.0 - South-Atlantic Bight and Gulf of Mexico
01:15:52 INFO: AVHRR Sea Surface Temperature for MARACOOS (Mid-Atlantic Regional Association Coastal Ocean Observing System)
01:15:52 INFO: COAWST Forecast System : USGS : US East Coast and Gulf of Mexico (Experimental)
01:15:52 INFO: Directional wave and sea surface temperature measurements collected in situ by Datawell Mark 3 directional buoy located near MONTEREY CANYON OUTER, CA from 2013/07/11 17:00:00 to 2014/07/01 20:59:59.
01:15:52 INFO: Directional wave and sea surface temperature measurements collected in situ by Datawell Mark 3 directional buoy located near MONTEREY BAY WEST, CA from 2013/06/19 18:00:00 to 2014/07/01 14:59:59.
01:15:52 INFO: Directional wave and sea surface temperature measurements collected in situ by Datawell Mark 3 directional buoy located near MONTEREY BAY WEST, CA from 2014/07/01 19:00:00 to 2014/10/04 23:59:59.
01:15:52 INFO: Directional wave and sea surface temperature measurements collected in situ by Datawell Mark 3 directional buoy located near CABRILLO POINT NEARSHORE, CA from 2014/05/08 21:00:00 to 2015/09/15 16:59:59.
01:15:52 INFO: Directional wave and sea surface temperature measurements collected in situ by Datawell Mark 3 directional buoy located near SAN FRANCISCO BAR, CA from 2013/06/19 22:00:00 to 2014/07/24 14:59:59.
01:15:52 INFO: Directional wave and sea surface temperature measurements collected in situ by Datawell Mark 3 directional buoy located near SAN FRANCISCO BAR, CA from 2014/07/24 19:00:00 to 2015/09/15 22:59:59.
01:15:52 INFO: Directional wave and sea surface temperature measurements collected in situ by Datawell Mark 3 directional buoy located near POINT REYES, CA from 2013/10/16 21:00:00 to 2014/09/05 11:59:59.
01:15:52 INFO: Directional wave and sea surface temperature measurements collected in situ by Datawell Mark 3 directional buoy located near HUMBOLDT BAY NORTH SPIT, CA from 2013/08/26 19:00:00 to 2014/07/24 03:59:59.
01:15:52 INFO: Directional wave and sea surface temperature measurements collected in situ by Datawell Mark 3 directional buoy located near UMPQUA OFFSHORE, OR from 2014/03/14 18:00:00 to 2015/05/21 16:59:59.
01:15:52 INFO: Directional wave and sea surface temperature measurements collected in situ by Datawell Mark 3 directional buoy located near DIABLO CANYON, CA from 2013/08/28 23:00:00 to 2014/10/29 16:59:59.
01:15:52 INFO: Directional wave and sea surface temperature measurements collected in situ by Datawell Mark 3 directional buoy located near CLATSOP SPIT, OR from 2013/07/18 20:00:00 to 2015/01/12 18:59:59.
01:15:52 INFO: Directional wave and sea surface temperature measurements collected in situ by Datawell Mark 3 directional buoy located near ASTORIA CANYON, OR from 2014/01/16 20:00:00 to 2014/09/29 22:59:59.
01:15:52 INFO: Directional wave and sea surface temperature measurements collected in situ by Datawell Mark 3 directional buoy located near GRAYS HARBOR, WA from 2013/10/13 19:00:00 to 2015/01/28 15:59:59.
01:15:52 INFO: Directional wave and sea surface temperature measurements collected in situ by Datawell Waverider buoys located near SAN FRANCISCO BAR, CA from 2007/07/25 to 2014/07/24.
01:15:52 INFO: Directional wave and sea surface temperature measurements collected in situ by Datawell Waverider buoys located near SAN FRANCISCO BAR, CA from 2007/07/25 to 2015/09/15.
01:15:52 INFO: Directional wave and sea surface temperature measurements collected in situ by Datawell Mark 3 directional buoy located near SANTA MONICA BAY, CA from 2013/12/18 21:00:00 to 2015/02/18 18:59:59.
01:15:52 INFO: Directional wave and sea surface temperature measurements collected in situ by Datawell Mark 3 directional buoy located near SANTA CRUZ BASIN, CA from 2013/07/09 15:00:00 to 2014/07/14 16:59:59.
01:15:52 INFO: Directional wave and sea surface temperature measurements collected in situ by Datawell Mark 3 directional buoy located near SAN PEDRO, CA from 2013/06/25 19:00:00 to 2015/09/23 18:59:59.
01:15:52 INFO: Directional wave and sea surface temperature measurements collected in situ by Datawell Mark 3 directional buoy located near OCEAN STATION PAPA from 2012/10/04 21:00:00 to 2015/01/01 00:59:59.
01:15:52 INFO: Directional wave and sea surface temperature measurements collected in situ by Datawell Mark 3 directional buoy located near CAMP PENDLETON NEARSHORE, CA from 2014/06/16 21:00:00 to 2015/01/23 12:59:59.
01:15:52 INFO: Directional wave and sea surface temperature measurements collected in situ by Datawell Mark 3 directional buoy located near SAN NICOLAS ISLAND, CA from 2014/07/18 16:00:00 to 2015/08/27 13:59:59.
01:15:52 INFO: Directional wave and sea surface temperature measurements collected in situ by Datawell Mark 3 directional buoy located near SCRIPPS NEARSHORE, CA from 2013/07/12 20:00:00 to 2015/01/07 17:59:59.
01:15:52 INFO: Directional wave and sea surface temperature measurements collected in situ by Datawell Waverider buoys located near OCEANSIDE OFFSHORE, CA from 1997/05/19 to 2015/03/04.
01:15:52 INFO: Directional wave and sea surface temperature measurements collected in situ by Datawell Mark 3 directional buoy located near POINT LOMA SOUTH, CA from 2013/08/12 20:00:00 to 2014/09/10 07:59:59.
01:15:52 INFO: Directional wave and sea surface temperature measurements collected in situ by Datawell Waverider buoys located near MOKAPU POINT, HI from 2000/08/09 to 2014/09/10.
01:15:52 INFO: Directional wave and sea surface temperature measurements collected in situ by Datawell Waverider buoys located near TORREY PINES OUTER, CA from 2001/01/30 to 2015/08/12.
01:15:52 INFO: ROMS ESPRESSO Real-Time Operational IS4DVAR Forecast System Version 2 (NEW) 2013-present FMRC History
01:15:52 INFO: Directional wave and sea surface temperature measurements collected in situ by Datawell Waverider buoys located near SANTA MONICA BAY, CA from 2000/03/16 to 2015/02/18.
01:15:52 INFO: Directional wave and sea surface temperature measurements collected in situ by Datawell Waverider buoys located near SAN NICOLAS ISLAND, CA from 1991/09/10 to 2015/08/27.
01:15:52 INFO: Directional wave and sea surface temperature measurements collected in situ by Datawell Waverider buoys located near UMPQUA OFFSHORE, OR from 2006/07/12 to 2015/05/21.
01:15:52 INFO: Directional wave and sea surface temperature measurements collected in situ by Datawell Mark 3 directional buoy located near FERNANDINA BEACH, FL from 2013/12/17 18:00:00 to 2015/01/29 16:59:59.
01:15:52 INFO: NDBC Standard Meteorological Buoy Data
01:15:52 INFO: Directional wave and sea surface temperature measurements collected in situ by Datawell Waverider buoys located near POINT REYES, CA from 1996/12/06 to 2015/05/29.
01:15:52 INFO: Directional wave and sea surface temperature measurements collected in situ by Datawell Waverider buoys located near HARVEST, CA from 1991/10/22 to 2015/07/09.
01:15:52 INFO: HYbrid Coordinate Ocean Model (HYCOM): Global
01:15:52 INFO: Directional wave and sea surface temperature measurements collected in situ by Datawell Waverider buoys located near CAPE MENDOCINO, CA from 1999/03/21 to 2015/09/14.
01:15:52 INFO: National Data Buoy Center SOS
01:15:52 INFO: G1SST, 1km blended SST
01:15:52 INFO: NOAA Coral Reef Watch Operational Twice-Weekly Near-Real-Time Global 50km Satellite Coral Bleaching Monitoring Products
01:15:52 INFO: Directional wave and sea surface temperature measurements collected in situ by Datawell Mark 3 directional buoy located near ST. PETERSBURG OFFSHORE, FL from 2013/12/03 19:00:00 to 2015/02/24 15:59:59.
01:15:52 INFO: Directional wave and sea surface temperature measurements collected in situ by Datawell Mark 3 directional buoy located near MASONBORO INLET, ILM2, NC from 2014/03/14 16:00:00 to 2015/01/06 13:59:59.where the water depth is approximately
01:15:52 INFO: Directional wave and sea surface temperature measurements collected in situ by Datawell Mark 3 directional buoy located near CAPE CANAVERAL NEARSHORE, FL from 2014/05/28 20:00:00 to 2015/06/05 12:59:59.
01:15:52 INFO: Directional wave and sea surface temperature measurements collected in situ by Datawell Mark 3 directional buoy located near FORT PIERCE, FL from 2013/12/05 17:00:00 to 2015/03/19 13:59:59.
01:15:52 INFO: Directional wave and sea surface temperature measurements collected in situ by Datawell Waverider buoys located near DUCK FRF 26m, NC from 2008/05/22 to 2015/05/06.
01:15:52 INFO: Directional wave and sea surface temperature measurements collected in situ by Datawell Mark 3 directional buoy located near CAPE CHARLES, VA from 2013/09/11 18:00:00 to 2015/02/18 11:59:59.
01:15:52 INFO: Directional wave and sea surface temperature measurements collected in situ by Datawell Waverider buoys located near CAPE CANAVERAL NEARSHORE, FL from 2006/09/07 to 2015/06/05.
01:15:52 INFO: Directional wave and sea surface temperature measurements collected in situ by Datawell Mark 3 directional buoy located near OREGON INLET, NC from 2013/07/17 17:00:00 to 2015/02/01 16:59:59.
01:15:52 INFO: Directional wave and sea surface temperature measurements collected in situ by Datawell Waverider buoys located near FERNANDINA BEACH, FL from 2006/02/09 to 2015/01/29.
01:15:52 INFO: Directional wave and sea surface temperature measurements collected in situ by Datawell Waverider buoys located near MASONBORO INLET, ILM2, NC from 2008/05/07 to 2015/01/06.
01:15:52 INFO: Directional wave and sea surface temperature measurements collected in situ by Datawell Waverider buoys located near MASONBORO INLET, ILM2, NC from 2008/05/07 to 2015/09/04.
01:15:52 INFO: Directional wave and sea surface temperature measurements collected in situ by Datawell Waverider buoys located near ST. PETERSBURG OFFSHORE, FL from 2007/07/10 to 2015/02/24.
01:15:52 INFO: Directional wave and sea surface temperature measurements collected in situ by Datawell Waverider buoys located near ST. PETERSBURG OFFSHORE, FL from 2007/07/10 to 2015/09/23.
01:15:52 INFO: Directional wave and sea surface temperature measurements collected in situ by Datawell Waverider buoys located near OREGON INLET, NC from 2012/04/08 to 2015/02/01.
01:15:52 INFO: Directional wave and sea surface temperature measurements collected in situ by Datawell Waverider buoys located near FORT PIERCE, FL from 2006/09/29 to 2015/03/19.
01:15:52 INFO: Directional wave and sea surface temperature measurements collected in situ by Datawell Waverider buoys located near NEW RIVER INLET, NC from 2012/04/14 to 2014/07/11.
01:15:52 INFO: Directional wave and sea surface temperature measurements collected in situ by Datawell Mark 3 directional buoy located near NEW RIVER INLET, NC from 2014/03/09 19:00:00 to 2014/07/11 23:59:59.
01:15:52 INFO: carocoops.cap2.buoy
01:15:52 INFO: carocoops.cap2.buoy
01:15:52 INFO: carocoops.frp2.buoy
01:15:52 INFO: carocoops.frp2.buoy
01:15:52 INFO: carocoops.sun2.buoy
01:15:52 INFO: lbhmc.apachepier.pier
01:15:52 INFO: lbhmc.cherrygrove.pier
01:15:52 INFO: sccf.fortmyers.wq
01:15:52 INFO: sccf.gulfofmexico.wq
01:15:52 INFO: sccf.redfishpass.wq
01:15:52 INFO: sccf.shellpoint.wq
01:15:52 INFO: sccf.tarponbay.wq
01:15:52 INFO: usf.c21.weatherpak
01:15:52 INFO: usf.shp.ngwlms
01:15:52 INFO: enp.bdvf1.met
01:15:52 INFO: enp.bnkf1.met
01:15:52 INFO: enp.bobf1.met
01:15:52 INFO: enp.bwsf1.met
01:15:52 INFO: enp.canf1.met
01:15:52 INFO: enp.cnbf1.met
01:15:52 INFO: enp.cwaf1.met
01:15:52 INFO: enp.dkkf1.met
01:15:52 INFO: enp.gbif1.met
01:15:52 INFO: enp.gbtf1.met
01:15:52 INFO: enp.hcef1.met
01:15:52 INFO: enp.jkyf1.met
01:15:52 INFO: enp.lbrf1.met
01:15:52 INFO: enp.lbsf1.met
01:15:52 INFO: enp.lmdf1.met
01:15:52 INFO: enp.lrif1.met
01:15:52 INFO: enp.lrkf1.met
01:15:52 INFO: enp.mukf1.met
01:15:52 INFO: enp.pkyf1.met
01:15:52 INFO: enp.tcvf1.met
01:15:52 INFO: enp.trrf1.met
01:15:52 INFO: enp.wiwf1.met
01:15:52 INFO: enp.wrbf1.met
01:15:52 INFO: enp.wwef1.met
01:15:52 INFO: fau.lobo.1
01:15:52 INFO: fldep.bingslanding.
01:15:52 INFO: fldep.stlucieinlet.
01:15:52 INFO: fldep.tolomatoriver.
01:15:52 INFO: lbhmc.2ndave.pier
01:15:52 INFO: ***************************** SOS ******************************
01:15:52 INFO: http://sdf.ndbc.noaa.gov/sos/server.php?service=SOS&request=GetCapabilities&acceptVersions=1.0.0
01:15:52 INFO: http://tds.secoora.org/thredds/sos/carocoops.cap2.buoy.nc?service=SOS&version=1.0.0&request=GetCapabilities
01:15:52 INFO: http://tds.secoora.org/thredds/sos/carocoops.cap2.buoy_archive.nc?service=SOS&version=1.0.0&request=GetCapabilities
01:15:52 INFO: http://tds.secoora.org/thredds/sos/carocoops.frp2.buoy.nc?service=SOS&version=1.0.0&request=GetCapabilities
01:15:52 INFO: http://tds.secoora.org/thredds/sos/carocoops.frp2.buoy_archive.nc?service=SOS&version=1.0.0&request=GetCapabilities
01:15:52 INFO: http://tds.secoora.org/thredds/sos/carocoops.sun2.buoy_archive.nc?service=SOS&version=1.0.0&request=GetCapabilities
01:15:52 INFO: http://tds.secoora.org/thredds/sos/enp.bdvf1.met.nc?service=SOS&version=1.0.0&request=GetCapabilities
01:15:52 INFO: http://tds.secoora.org/thredds/sos/enp.bnkf1.met.nc?service=SOS&version=1.0.0&request=GetCapabilities
01:15:52 INFO: http://tds.secoora.org/thredds/sos/enp.bobf1.met.nc?service=SOS&version=1.0.0&request=GetCapabilities
01:15:52 INFO: http://tds.secoora.org/thredds/sos/enp.bwsf1.met.nc?service=SOS&version=1.0.0&request=GetCapabilities
01:15:52 INFO: http://tds.secoora.org/thredds/sos/enp.canf1.met.nc?service=SOS&version=1.0.0&request=GetCapabilities
01:15:52 INFO: http://tds.secoora.org/thredds/sos/enp.cnbf1.met.nc?service=SOS&version=1.0.0&request=GetCapabilities
01:15:52 INFO: http://tds.secoora.org/thredds/sos/enp.cwaf1.met.nc?service=SOS&version=1.0.0&request=GetCapabilities
01:15:52 INFO: http://tds.secoora.org/thredds/sos/enp.dkkf1.met.nc?service=SOS&version=1.0.0&request=GetCapabilities
01:15:52 INFO: http://tds.secoora.org/thredds/sos/enp.gbif1.met.nc?service=SOS&version=1.0.0&request=GetCapabilities
01:15:52 INFO: http://tds.secoora.org/thredds/sos/enp.gbtf1.met.nc?service=SOS&version=1.0.0&request=GetCapabilities
01:15:52 INFO: http://tds.secoora.org/thredds/sos/enp.hcef1.met.nc?service=SOS&version=1.0.0&request=GetCapabilities
01:15:52 INFO: http://tds.secoora.org/thredds/sos/enp.jkyf1.met.nc?service=SOS&version=1.0.0&request=GetCapabilities
01:15:52 INFO: http://tds.secoora.org/thredds/sos/enp.lbrf1.met.nc?service=SOS&version=1.0.0&request=GetCapabilities
01:15:52 INFO: http://tds.secoora.org/thredds/sos/enp.lbsf1.met.nc?service=SOS&version=1.0.0&request=GetCapabilities
01:15:52 INFO: http://tds.secoora.org/thredds/sos/enp.lmdf1.met.nc?service=SOS&version=1.0.0&request=GetCapabilities
01:15:52 INFO: http://tds.secoora.org/thredds/sos/enp.lrif1.met.nc?service=SOS&version=1.0.0&request=GetCapabilities
01:15:52 INFO: http://tds.secoora.org/thredds/sos/enp.lrkf1.met.nc?service=SOS&version=1.0.0&request=GetCapabilities
01:15:52 INFO: http://tds.secoora.org/thredds/sos/enp.mukf1.met.nc?service=SOS&version=1.0.0&request=GetCapabilities
01:15:52 INFO: http://tds.secoora.org/thredds/sos/enp.pkyf1.met.nc?service=SOS&version=1.0.0&request=GetCapabilities
01:15:52 INFO: http://tds.secoora.org/thredds/sos/enp.tcvf1.met.nc?service=SOS&version=1.0.0&request=GetCapabilities
01:15:52 INFO: http://tds.secoora.org/thredds/sos/enp.trrf1.met.nc?service=SOS&version=1.0.0&request=GetCapabilities
01:15:52 INFO: http://tds.secoora.org/thredds/sos/enp.wiwf1.met.nc?service=SOS&version=1.0.0&request=GetCapabilities
01:15:52 INFO: http://tds.secoora.org/thredds/sos/enp.wrbf1.met.nc?service=SOS&version=1.0.0&request=GetCapabilities
01:15:52 INFO: http://tds.secoora.org/thredds/sos/enp.wwef1.met.nc?service=SOS&version=1.0.0&request=GetCapabilities
01:15:52 INFO: http://tds.secoora.org/thredds/sos/fau.lobo.1.nc?service=SOS&version=1.0.0&request=GetCapabilities
01:15:52 INFO: http://tds.secoora.org/thredds/sos/fldep.bingslanding..nc?service=SOS&version=1.0.0&request=GetCapabilities
01:15:52 INFO: http://tds.secoora.org/thredds/sos/fldep.stlucieinlet..nc?service=SOS&version=1.0.0&request=GetCapabilities
01:15:52 INFO: http://tds.secoora.org/thredds/sos/fldep.tolomatoriver..nc?service=SOS&version=1.0.0&request=GetCapabilities
01:15:52 INFO: http://tds.secoora.org/thredds/sos/lbhmc.2ndave.pier.nc?service=SOS&version=1.0.0&request=GetCapabilities
01:15:52 INFO: http://tds.secoora.org/thredds/sos/lbhmc.apachepier.pier.nc?service=SOS&version=1.0.0&request=GetCapabilities
01:15:52 INFO: http://tds.secoora.org/thredds/sos/lbhmc.cherrygrove.pier.nc?service=SOS&version=1.0.0&request=GetCapabilities
01:15:52 INFO: http://tds.secoora.org/thredds/sos/sccf.fortmyers.wq.nc?service=SOS&version=1.0.0&request=GetCapabilities
01:15:52 INFO: http://tds.secoora.org/thredds/sos/sccf.gulfofmexico.wq.nc?service=SOS&version=1.0.0&request=GetCapabilities
01:15:52 INFO: http://tds.secoora.org/thredds/sos/sccf.redfishpass.wq.nc?service=SOS&version=1.0.0&request=GetCapabilities
01:15:52 INFO: http://tds.secoora.org/thredds/sos/sccf.shellpoint.wq.nc?service=SOS&version=1.0.0&request=GetCapabilities
01:15:52 INFO: http://tds.secoora.org/thredds/sos/sccf.tarponbay.wq.nc?service=SOS&version=1.0.0&request=GetCapabilities
01:15:52 INFO: http://tds.secoora.org/thredds/sos/usf.c21.weatherpak.nc?service=SOS&version=1.0.0&request=GetCapabilities
01:15:52 INFO: http://tds.secoora.org/thredds/sos/usf.shp.ngwlms.nc?service=SOS&version=1.0.0&request=GetCapabilities
01:15:52 INFO: http://thredds.cdip.ucsd.edu/thredds/sos/cdip/archive/028p1/028p1_d16.nc?service=SOS&version=1.0.0&request=GetCapabilities
01:15:52 INFO: http://thredds.cdip.ucsd.edu/thredds/sos/cdip/archive/028p1/028p1_historic.nc?service=SOS&version=1.0.0&request=GetCapabilities
01:15:52 INFO: http://thredds.cdip.ucsd.edu/thredds/sos/cdip/archive/029p1/029p1_d19.nc?service=SOS&version=1.0.0&request=GetCapabilities
01:15:52 INFO: http://thredds.cdip.ucsd.edu/thredds/sos/cdip/archive/029p1/029p1_historic.nc?service=SOS&version=1.0.0&request=GetCapabilities
01:15:52 INFO: http://thredds.cdip.ucsd.edu/thredds/sos/cdip/archive/036p1/036p1_d40.nc?service=SOS&version=1.0.0&request=GetCapabilities
01:15:52 INFO: http://thredds.cdip.ucsd.edu/thredds/sos/cdip/archive/043p1/043p1_d17.nc?service=SOS&version=1.0.0&request=GetCapabilities
01:15:52 INFO: http://thredds.cdip.ucsd.edu/thredds/sos/cdip/archive/045p1/045p1_historic.nc?service=SOS&version=1.0.0&request=GetCapabilities
01:15:52 INFO: http://thredds.cdip.ucsd.edu/thredds/sos/cdip/archive/067p1/067p1_d23.nc?service=SOS&version=1.0.0&request=GetCapabilities
01:15:52 INFO: http://thredds.cdip.ucsd.edu/thredds/sos/cdip/archive/067p1/067p1_historic.nc?service=SOS&version=1.0.0&request=GetCapabilities
01:15:52 INFO: http://thredds.cdip.ucsd.edu/thredds/sos/cdip/archive/071p1/071p1_historic.nc?service=SOS&version=1.0.0&request=GetCapabilities
01:15:52 INFO: http://thredds.cdip.ucsd.edu/thredds/sos/cdip/archive/076p1/076p1_d27.nc?service=SOS&version=1.0.0&request=GetCapabilities
01:15:52 INFO: http://thredds.cdip.ucsd.edu/thredds/sos/cdip/archive/092p1/092p1_d20.nc?service=SOS&version=1.0.0&request=GetCapabilities
01:15:52 INFO: http://thredds.cdip.ucsd.edu/thredds/sos/cdip/archive/094p1/094p1_historic.nc?service=SOS&version=1.0.0&request=GetCapabilities
01:15:52 INFO: http://thredds.cdip.ucsd.edu/thredds/sos/cdip/archive/098p1/098p1_historic.nc?service=SOS&version=1.0.0&request=GetCapabilities
01:15:52 INFO: http://thredds.cdip.ucsd.edu/thredds/sos/cdip/archive/100p1/100p1_historic.nc?service=SOS&version=1.0.0&request=GetCapabilities
01:15:52 INFO: http://thredds.cdip.ucsd.edu/thredds/sos/cdip/archive/132p1/132p1_d11.nc?service=SOS&version=1.0.0&request=GetCapabilities
01:15:52 INFO: http://thredds.cdip.ucsd.edu/thredds/sos/cdip/archive/132p1/132p1_historic.nc?service=SOS&version=1.0.0&request=GetCapabilities
01:15:52 INFO: http://thredds.cdip.ucsd.edu/thredds/sos/cdip/archive/134p1/134p1_d09.nc?service=SOS&version=1.0.0&request=GetCapabilities
01:15:52 INFO: http://thredds.cdip.ucsd.edu/thredds/sos/cdip/archive/134p1/134p1_historic.nc?service=SOS&version=1.0.0&request=GetCapabilities
01:15:52 INFO: http://thredds.cdip.ucsd.edu/thredds/sos/cdip/archive/139p1/139p1_d08.nc?service=SOS&version=1.0.0&request=GetCapabilities
01:15:52 INFO: http://thredds.cdip.ucsd.edu/thredds/sos/cdip/archive/139p1/139p1_historic.nc?service=SOS&version=1.0.0&request=GetCapabilities
01:15:52 INFO: http://thredds.cdip.ucsd.edu/thredds/sos/cdip/archive/142p1/142p1_d14.nc?service=SOS&version=1.0.0&request=GetCapabilities
01:15:52 INFO: http://thredds.cdip.ucsd.edu/thredds/sos/cdip/archive/142p1/142p1_d15.nc?service=SOS&version=1.0.0&request=GetCapabilities
01:15:52 INFO: http://thredds.cdip.ucsd.edu/thredds/sos/cdip/archive/142p1/142p1_historic.nc?service=SOS&version=1.0.0&request=GetCapabilities
01:15:52 INFO: http://thredds.cdip.ucsd.edu/thredds/sos/cdip/archive/143p1/143p1_d11.nc?service=SOS&version=1.0.0&request=GetCapabilities
01:15:52 INFO: http://thredds.cdip.ucsd.edu/thredds/sos/cdip/archive/143p1/143p1_historic.nc?service=SOS&version=1.0.0&request=GetCapabilities
01:15:52 INFO: http://thredds.cdip.ucsd.edu/thredds/sos/cdip/archive/144p1/144p1_d07.nc?service=SOS&version=1.0.0&request=GetCapabilities
01:15:52 INFO: http://thredds.cdip.ucsd.edu/thredds/sos/cdip/archive/144p1/144p1_historic.nc?service=SOS&version=1.0.0&request=GetCapabilities
01:15:52 INFO: http://thredds.cdip.ucsd.edu/thredds/sos/cdip/archive/150p1/150p1_d07.nc?service=SOS&version=1.0.0&request=GetCapabilities
01:15:52 INFO: http://thredds.cdip.ucsd.edu/thredds/sos/cdip/archive/150p1/150p1_historic.nc?service=SOS&version=1.0.0&request=GetCapabilities
01:15:52 INFO: http://thredds.cdip.ucsd.edu/thredds/sos/cdip/archive/156p1/156p1_d07.nc?service=SOS&version=1.0.0&request=GetCapabilities
01:15:52 INFO: http://thredds.cdip.ucsd.edu/thredds/sos/cdip/archive/158p1/158p1_d06.nc?service=SOS&version=1.0.0&request=GetCapabilities
01:15:52 INFO: http://thredds.cdip.ucsd.edu/thredds/sos/cdip/archive/162p1/162p1_d04.nc?service=SOS&version=1.0.0&request=GetCapabilities
01:15:52 INFO: http://thredds.cdip.ucsd.edu/thredds/sos/cdip/archive/166p1/166p1_d02.nc?service=SOS&version=1.0.0&request=GetCapabilities
01:15:52 INFO: http://thredds.cdip.ucsd.edu/thredds/sos/cdip/archive/168p1/168p1_d05.nc?service=SOS&version=1.0.0&request=GetCapabilities
01:15:52 INFO: http://thredds.cdip.ucsd.edu/thredds/sos/cdip/archive/179p1/179p1_d04.nc?service=SOS&version=1.0.0&request=GetCapabilities
01:15:52 INFO: http://thredds.cdip.ucsd.edu/thredds/sos/cdip/archive/185p1/185p1_d02.nc?service=SOS&version=1.0.0&request=GetCapabilities
01:15:52 INFO: http://thredds.cdip.ucsd.edu/thredds/sos/cdip/archive/185p1/185p1_d03.nc?service=SOS&version=1.0.0&request=GetCapabilities
01:15:52 INFO: http://thredds.cdip.ucsd.edu/thredds/sos/cdip/archive/186p1/186p1_d03.nc?service=SOS&version=1.0.0&request=GetCapabilities
01:15:52 INFO: http://thredds.cdip.ucsd.edu/thredds/sos/cdip/archive/190p1/190p1_d02.nc?service=SOS&version=1.0.0&request=GetCapabilities
01:15:52 INFO: http://thredds.cdip.ucsd.edu/thredds/sos/cdip/archive/190p1/190p1_historic.nc?service=SOS&version=1.0.0&request=GetCapabilities
01:15:52 INFO: http://thredds.cdip.ucsd.edu/thredds/sos/cdip/archive/191p1/191p1_d12.nc?service=SOS&version=1.0.0&request=GetCapabilities
01:15:52 INFO: http://thredds.cdip.ucsd.edu/thredds/sos/cdip/archive/192p1/192p1_d02.nc?service=SOS&version=1.0.0&request=GetCapabilities
01:15:52 INFO: http://thredds.cdip.ucsd.edu/thredds/sos/cdip/archive/192p1/192p1_historic.nc?service=SOS&version=1.0.0&request=GetCapabilities
01:15:52 INFO: http://thredds.cdip.ucsd.edu/thredds/sos/cdip/archive/201p1/201p1_d02.nc?service=SOS&version=1.0.0&request=GetCapabilities
01:15:52 INFO: http://thredds.cdip.ucsd.edu/thredds/sos/cdip/archive/203p1/203p1_d01.nc?service=SOS&version=1.0.0&request=GetCapabilities
01:15:52 INFO: http://thredds.cdip.ucsd.edu/thredds/sos/cdip/archive/430p1/430p1_historic.nc?service=SOS&version=1.0.0&request=GetCapabilities
01:15:52 INFO: ***************************** DAP ******************************
01:15:52 INFO: http://crow.marine.usf.edu:8080/thredds/dodsC/FVCOM-Nowcast-Agg.nc.html
01:15:52 INFO: http://crow.marine.usf.edu:8080/thredds/dodsC/WFS_ROMS_NF_model/USF_Ocean_Circulation_Group_West_Florida_Shelf_Daily_ROMS_Nowcast_Forecast_Model_Data_best.ncd.html
01:15:52 INFO: http://geoport.whoi.edu/thredds/dodsC/coawst_4/use/fmrc/coawst_4_use_best.ncd.html
01:15:52 INFO: http://omgsrv1.meas.ncsu.edu:8080/thredds/dodsC/fmrc/sabgom/SABGOM_Forecast_Model_Run_Collection_best.ncd.html
01:15:52 INFO: http://oos.soest.hawaii.edu/thredds/dodsC/hioos/satellite/dhw.html
01:15:52 INFO: http://oos.soest.hawaii.edu/thredds/dodsC/pacioos/hycom/global.html
01:15:52 INFO: http://tds.maracoos.org/thredds/dodsC/SST-Three-Agg.nc.html
01:15:52 INFO: http://tds.marine.rutgers.edu/thredds/dodsC/roms/espresso/2013_da/his/ESPRESSO_Real-Time_v2_History_Best.html
01:15:52 INFO: http://tds.secoora.org/thredds/dodsC/carocoops.cap2.buoy.nc.html
01:15:52 INFO: http://tds.secoora.org/thredds/dodsC/carocoops.cap2.buoy_archive.nc.html
01:15:52 INFO: http://tds.secoora.org/thredds/dodsC/carocoops.frp2.buoy.nc.html
01:15:52 INFO: http://tds.secoora.org/thredds/dodsC/carocoops.frp2.buoy_archive.nc.html
01:15:52 INFO: http://tds.secoora.org/thredds/dodsC/carocoops.sun2.buoy_archive.nc.html
01:15:52 INFO: http://tds.secoora.org/thredds/dodsC/enp.bdvf1.met.nc.html
01:15:52 INFO: http://tds.secoora.org/thredds/dodsC/enp.bnkf1.met.nc.html
01:15:52 INFO: http://tds.secoora.org/thredds/dodsC/enp.bobf1.met.nc.html
01:15:52 INFO: http://tds.secoora.org/thredds/dodsC/enp.bwsf1.met.nc.html
01:15:52 INFO: http://tds.secoora.org/thredds/dodsC/enp.canf1.met.nc.html
01:15:52 INFO: http://tds.secoora.org/thredds/dodsC/enp.cnbf1.met.nc.html
01:15:52 INFO: http://tds.secoora.org/thredds/dodsC/enp.cwaf1.met.nc.html
01:15:52 INFO: http://tds.secoora.org/thredds/dodsC/enp.dkkf1.met.nc.html
01:15:52 INFO: http://tds.secoora.org/thredds/dodsC/enp.gbif1.met.nc.html
01:15:52 INFO: http://tds.secoora.org/thredds/dodsC/enp.gbtf1.met.nc.html
01:15:52 INFO: http://tds.secoora.org/thredds/dodsC/enp.hcef1.met.nc.html
01:15:52 INFO: http://tds.secoora.org/thredds/dodsC/enp.jkyf1.met.nc.html
01:15:52 INFO: http://tds.secoora.org/thredds/dodsC/enp.lbrf1.met.nc.html
01:15:52 INFO: http://tds.secoora.org/thredds/dodsC/enp.lbsf1.met.nc.html
01:15:52 INFO: http://tds.secoora.org/thredds/dodsC/enp.lmdf1.met.nc.html
01:15:52 INFO: http://tds.secoora.org/thredds/dodsC/enp.lrif1.met.nc.html
01:15:52 INFO: http://tds.secoora.org/thredds/dodsC/enp.lrkf1.met.nc.html
01:15:52 INFO: http://tds.secoora.org/thredds/dodsC/enp.mukf1.met.nc.html
01:15:52 INFO: http://tds.secoora.org/thredds/dodsC/enp.pkyf1.met.nc.html
01:15:52 INFO: http://tds.secoora.org/thredds/dodsC/enp.tcvf1.met.nc.html
01:15:52 INFO: http://tds.secoora.org/thredds/dodsC/enp.trrf1.met.nc.html
01:15:52 INFO: http://tds.secoora.org/thredds/dodsC/enp.wiwf1.met.nc.html
01:15:52 INFO: http://tds.secoora.org/thredds/dodsC/enp.wrbf1.met.nc.html
01:15:52 INFO: http://tds.secoora.org/thredds/dodsC/enp.wwef1.met.nc.html
01:15:52 INFO: http://tds.secoora.org/thredds/dodsC/fau.lobo.1.nc.html
01:15:52 INFO: http://tds.secoora.org/thredds/dodsC/fldep.bingslanding..nc.html
01:15:52 INFO: http://tds.secoora.org/thredds/dodsC/fldep.stlucieinlet..nc.html
01:15:52 INFO: http://tds.secoora.org/thredds/dodsC/fldep.tolomatoriver..nc.html
01:15:52 INFO: http://tds.secoora.org/thredds/dodsC/lbhmc.2ndave.pier.nc.html
01:15:52 INFO: http://tds.secoora.org/thredds/dodsC/lbhmc.apachepier.pier.nc.html
01:15:52 INFO: http://tds.secoora.org/thredds/dodsC/lbhmc.cherrygrove.pier.nc.html
01:15:52 INFO: http://tds.secoora.org/thredds/dodsC/sccf.fortmyers.wq.nc.html
01:15:52 INFO: http://tds.secoora.org/thredds/dodsC/sccf.gulfofmexico.wq.nc.html
01:15:52 INFO: http://tds.secoora.org/thredds/dodsC/sccf.redfishpass.wq.nc.html
01:15:52 INFO: http://tds.secoora.org/thredds/dodsC/sccf.shellpoint.wq.nc.html
01:15:52 INFO: http://tds.secoora.org/thredds/dodsC/sccf.tarponbay.wq.nc.html
01:15:52 INFO: http://tds.secoora.org/thredds/dodsC/usf.c21.weatherpak.nc.html
01:15:52 INFO: http://tds.secoora.org/thredds/dodsC/usf.shp.ngwlms.nc.html
01:15:52 INFO: http://thredds.cdip.ucsd.edu/thredds/dodsC/cdip/archive/028p1/028p1_d16.nc.html
01:15:52 INFO: http://thredds.cdip.ucsd.edu/thredds/dodsC/cdip/archive/028p1/028p1_historic.nc.html
01:15:52 INFO: http://thredds.cdip.ucsd.edu/thredds/dodsC/cdip/archive/029p1/029p1_d19.nc.html
01:15:52 INFO: http://thredds.cdip.ucsd.edu/thredds/dodsC/cdip/archive/029p1/029p1_historic.nc.html
01:15:52 INFO: http://thredds.cdip.ucsd.edu/thredds/dodsC/cdip/archive/036p1/036p1_d40.nc.html
01:15:52 INFO: http://thredds.cdip.ucsd.edu/thredds/dodsC/cdip/archive/043p1/043p1_d17.nc.html
01:15:52 INFO: http://thredds.cdip.ucsd.edu/thredds/dodsC/cdip/archive/045p1/045p1_historic.nc.html
01:15:52 INFO: http://thredds.cdip.ucsd.edu/thredds/dodsC/cdip/archive/067p1/067p1_d23.nc.html
01:15:52 INFO: http://thredds.cdip.ucsd.edu/thredds/dodsC/cdip/archive/067p1/067p1_historic.nc.html
01:15:52 INFO: http://thredds.cdip.ucsd.edu/thredds/dodsC/cdip/archive/071p1/071p1_historic.nc.html
01:15:52 INFO: http://thredds.cdip.ucsd.edu/thredds/dodsC/cdip/archive/076p1/076p1_d27.nc.html
01:15:52 INFO: http://thredds.cdip.ucsd.edu/thredds/dodsC/cdip/archive/092p1/092p1_d20.nc.html
01:15:52 INFO: http://thredds.cdip.ucsd.edu/thredds/dodsC/cdip/archive/094p1/094p1_historic.nc.html
01:15:52 INFO: http://thredds.cdip.ucsd.edu/thredds/dodsC/cdip/archive/098p1/098p1_historic.nc.html
01:15:52 INFO: http://thredds.cdip.ucsd.edu/thredds/dodsC/cdip/archive/100p1/100p1_historic.nc.html
01:15:52 INFO: http://thredds.cdip.ucsd.edu/thredds/dodsC/cdip/archive/132p1/132p1_d11.nc.html
01:15:52 INFO: http://thredds.cdip.ucsd.edu/thredds/dodsC/cdip/archive/132p1/132p1_historic.nc.html
01:15:52 INFO: http://thredds.cdip.ucsd.edu/thredds/dodsC/cdip/archive/134p1/134p1_d09.nc.html
01:15:52 INFO: http://thredds.cdip.ucsd.edu/thredds/dodsC/cdip/archive/134p1/134p1_historic.nc.html
01:15:52 INFO: http://thredds.cdip.ucsd.edu/thredds/dodsC/cdip/archive/139p1/139p1_d08.nc.html
01:15:52 INFO: http://thredds.cdip.ucsd.edu/thredds/dodsC/cdip/archive/139p1/139p1_historic.nc.html
01:15:52 INFO: http://thredds.cdip.ucsd.edu/thredds/dodsC/cdip/archive/142p1/142p1_d14.nc.html
01:15:52 INFO: http://thredds.cdip.ucsd.edu/thredds/dodsC/cdip/archive/142p1/142p1_d15.nc.html
01:15:52 INFO: http://thredds.cdip.ucsd.edu/thredds/dodsC/cdip/archive/142p1/142p1_historic.nc.html
01:15:52 INFO: http://thredds.cdip.ucsd.edu/thredds/dodsC/cdip/archive/143p1/143p1_d11.nc.html
01:15:52 INFO: http://thredds.cdip.ucsd.edu/thredds/dodsC/cdip/archive/143p1/143p1_historic.nc.html
01:15:52 INFO: http://thredds.cdip.ucsd.edu/thredds/dodsC/cdip/archive/144p1/144p1_d07.nc.html
01:15:52 INFO: http://thredds.cdip.ucsd.edu/thredds/dodsC/cdip/archive/144p1/144p1_historic.nc.html
01:15:52 INFO: http://thredds.cdip.ucsd.edu/thredds/dodsC/cdip/archive/150p1/150p1_d07.nc.html
01:15:52 INFO: http://thredds.cdip.ucsd.edu/thredds/dodsC/cdip/archive/150p1/150p1_historic.nc.html
01:15:52 INFO: http://thredds.cdip.ucsd.edu/thredds/dodsC/cdip/archive/156p1/156p1_d07.nc.html
01:15:52 INFO: http://thredds.cdip.ucsd.edu/thredds/dodsC/cdip/archive/158p1/158p1_d06.nc.html
01:15:52 INFO: http://thredds.cdip.ucsd.edu/thredds/dodsC/cdip/archive/162p1/162p1_d04.nc.html
01:15:52 INFO: http://thredds.cdip.ucsd.edu/thredds/dodsC/cdip/archive/166p1/166p1_d02.nc.html
01:15:52 INFO: http://thredds.cdip.ucsd.edu/thredds/dodsC/cdip/archive/168p1/168p1_d05.nc.html
01:15:52 INFO: http://thredds.cdip.ucsd.edu/thredds/dodsC/cdip/archive/179p1/179p1_d04.nc.html
01:15:52 INFO: http://thredds.cdip.ucsd.edu/thredds/dodsC/cdip/archive/185p1/185p1_d02.nc.html
01:15:52 INFO: http://thredds.cdip.ucsd.edu/thredds/dodsC/cdip/archive/185p1/185p1_d03.nc.html
01:15:52 INFO: http://thredds.cdip.ucsd.edu/thredds/dodsC/cdip/archive/186p1/186p1_d03.nc.html
01:15:52 INFO: http://thredds.cdip.ucsd.edu/thredds/dodsC/cdip/archive/190p1/190p1_d02.nc.html
01:15:52 INFO: http://thredds.cdip.ucsd.edu/thredds/dodsC/cdip/archive/190p1/190p1_historic.nc.html
01:15:52 INFO: http://thredds.cdip.ucsd.edu/thredds/dodsC/cdip/archive/191p1/191p1_d12.nc.html
01:15:52 INFO: http://thredds.cdip.ucsd.edu/thredds/dodsC/cdip/archive/192p1/192p1_d02.nc.html
01:15:52 INFO: http://thredds.cdip.ucsd.edu/thredds/dodsC/cdip/archive/192p1/192p1_historic.nc.html
01:15:52 INFO: http://thredds.cdip.ucsd.edu/thredds/dodsC/cdip/archive/201p1/201p1_d02.nc.html
01:15:52 INFO: http://thredds.cdip.ucsd.edu/thredds/dodsC/cdip/archive/203p1/203p1_d01.nc.html
01:15:52 INFO: http://thredds.cdip.ucsd.edu/thredds/dodsC/cdip/archive/430p1/430p1_historic.nc.html
01:20:31 INFO: ************************* Filtered DAP *************************
01:20:31 INFO: http://crow.marine.usf.edu:8080/thredds/dodsC/FVCOM-Nowcast-Agg.nc.html
01:20:31 INFO: http://crow.marine.usf.edu:8080/thredds/dodsC/WFS_ROMS_NF_model/USF_Ocean_Circulation_Group_West_Florida_Shelf_Daily_ROMS_Nowcast_Forecast_Model_Data_best.ncd.html
01:20:31 INFO: http://geoport.whoi.edu/thredds/dodsC/coawst_4/use/fmrc/coawst_4_use_best.ncd.html
01:20:31 INFO: http://omgsrv1.meas.ncsu.edu:8080/thredds/dodsC/fmrc/sabgom/SABGOM_Forecast_Model_Run_Collection_best.ncd.html
01:20:31 INFO: http://oos.soest.hawaii.edu/thredds/dodsC/hioos/satellite/dhw.html
01:20:31 INFO: http://oos.soest.hawaii.edu/thredds/dodsC/pacioos/hycom/global.html
01:20:31 INFO: http://tds.maracoos.org/thredds/dodsC/SST-Three-Agg.nc.html
01:20:31 INFO: http://tds.marine.rutgers.edu/thredds/dodsC/roms/espresso/2013_da/his/ESPRESSO_Real-Time_v2_History_Best.html
01:20:31 WARNING: USEAST not in the NGDC csw
01:20:31 WARNING: USF_SWAN not in the NGDC csw
01:21:13 WARNING: Cannot get cube for: http://129.252.139.124/thredds/dodsC/usf.nfb.ngwlms.nc
Cannot find ['sea_water_temperature', 'sea_surface_temperature', 'sea_water_potential_temperature', 'equivalent_potential_temperature', 'sea_water_conservative_temperature', 'pseudo_equivalent_potential_temperature'] in http://129.252.139.124/thredds/dodsC/usf.nfb.ngwlms.nc.
01:21:25 WARNING: Cannot get cube for: http://129.252.139.124/thredds/dodsC/usf.tas.ngwlms.nc
Cannot find ['sea_water_temperature', 'sea_surface_temperature', 'sea_water_potential_temperature', 'equivalent_potential_temperature', 'sea_water_conservative_temperature', 'pseudo_equivalent_potential_temperature'] in http://129.252.139.124/thredds/dodsC/usf.tas.ngwlms.nc.
01:21:40 WARNING: Cannot get cube for: http://129.252.139.124/thredds/dodsC/usf.apk.ngwlms.nc
Cannot find ['sea_water_temperature', 'sea_surface_temperature', 'sea_water_potential_temperature', 'equivalent_potential_temperature', 'sea_water_conservative_temperature', 'pseudo_equivalent_potential_temperature'] in http://129.252.139.124/thredds/dodsC/usf.apk.ngwlms.nc.
01:21:48 WARNING: Cannot get cube for: http://129.252.139.124/thredds/dodsC/usf.c21.weatherpak.nc
Cannot find ['sea_water_temperature', 'sea_surface_temperature', 'sea_water_potential_temperature', 'equivalent_potential_temperature', 'sea_water_conservative_temperature', 'pseudo_equivalent_potential_temperature'] in http://129.252.139.124/thredds/dodsC/usf.c21.weatherpak.nc.
01:22:19 WARNING: Cannot get cube for: http://129.252.139.124/thredds/dodsC/usf.bcp.ngwlms.nc
Cannot find ['sea_water_temperature', 'sea_surface_temperature', 'sea_water_potential_temperature', 'equivalent_potential_temperature', 'sea_water_conservative_temperature', 'pseudo_equivalent_potential_temperature'] in http://129.252.139.124/thredds/dodsC/usf.bcp.ngwlms.nc.
01:22:37 WARNING: Cannot get cube for: http://129.252.139.124/thredds/dodsC/usf.fhp.ngwlms.nc
Cannot find ['sea_water_temperature', 'sea_surface_temperature', 'sea_water_potential_temperature', 'equivalent_potential_temperature', 'sea_water_conservative_temperature', 'pseudo_equivalent_potential_temperature'] in http://129.252.139.124/thredds/dodsC/usf.fhp.ngwlms.nc.
01:22:45 WARNING: Cannot get cube for: http://129.252.139.124/thredds/dodsC/usf.c10.mcat.nc
istart must be different from istop! Got istart 48233 and  istop 48233
01:23:01 WARNING: Cannot get cube for: http://129.252.139.124/thredds/dodsC/c10_salinity_water_temp.nc
Cannot find ['sea_water_temperature', 'sea_surface_temperature', 'sea_water_potential_temperature', 'equivalent_potential_temperature', 'sea_water_conservative_temperature', 'pseudo_equivalent_potential_temperature'] in http://129.252.139.124/thredds/dodsC/c10_salinity_water_temp.nc.
01:23:17 WARNING: Cannot get cube for: http://129.252.139.124/thredds/dodsC/QC_C10_Temp_full.nc
Cannot find ['sea_water_temperature', 'sea_surface_temperature', 'sea_water_potential_temperature', 'equivalent_potential_temperature', 'sea_water_conservative_temperature', 'pseudo_equivalent_potential_temperature'] in http://129.252.139.124/thredds/dodsC/QC_C10_Temp_full.nc.
01:23:37 WARNING: Cannot get cube for: http://129.252.139.124/thredds/dodsC/QC_C10_Sal_full.nc
Cannot find ['sea_water_temperature', 'sea_surface_temperature', 'sea_water_potential_temperature', 'equivalent_potential_temperature', 'sea_water_conservative_temperature', 'pseudo_equivalent_potential_temperature'] in http://129.252.139.124/thredds/dodsC/QC_C10_Sal_full.nc.
01:23:42 WARNING: Cannot get cube for: http://129.252.139.124/thredds/dodsC/usf.c12.mcat.nc
istart must be different from istop! Got istart 18711 and  istop 18711
01:23:49 WARNING: Cannot get cube for: http://129.252.139.124/thredds/dodsC/usf.c13.mcat.nc
istart must be different from istop! Got istart 18099 and  istop 18099
01:23:59 WARNING: Cannot get cube for: http://129.252.139.124/thredds/dodsC/usf.c10.mcat_2011.nc
istart must be different from istop! Got istart 26303 and  istop 26303
01:24:05 WARNING: Cannot get cube for: http://129.252.139.124/thredds/dodsC/usf.c12.mcat_2011.nc
istart must be different from istop! Got istart 26303 and  istop 26303
01:24:14 WARNING: Cannot get cube for: http://129.252.139.124/thredds/dodsC/usf.c13.mcat_2011.nc
istart must be different from istop! Got istart 26303 and  istop 26303
01:25:17 WARNING: Cannot get cube for: http://129.252.139.124/thredds/dodsC/cormp.ilm2.buoy.nc
Cannot find ['sea_water_temperature', 'sea_surface_temperature', 'sea_water_potential_temperature', 'equivalent_potential_temperature', 'sea_water_conservative_temperature', 'pseudo_equivalent_potential_temperature'] in http://129.252.139.124/thredds/dodsC/cormp.ilm2.buoy.nc.
01:25:20 WARNING: Cannot get cube for: http://129.252.139.124/thredds/dodsC/cormp.ilm1.buoy.nc
istart must be different from istop! Got istart 1443 and  istop 1443
01:25:34 WARNING: Cannot get cube for: http://129.252.139.124/thredds/dodsC/cormp.lej3.buoy.nc
istart must be different from istop! Got istart 91490 and  istop 91490
01:26:29 WARNING: Cannot get cube for: http://129.252.139.124/thredds/dodsC/fldep.poncedeleonsouth..nc
Cannot find ['sea_water_temperature', 'sea_surface_temperature', 'sea_water_potential_temperature', 'equivalent_potential_temperature', 'sea_water_conservative_temperature', 'pseudo_equivalent_potential_temperature'] in http://129.252.139.124/thredds/dodsC/fldep.poncedeleonsouth..nc.
01:26:46 WARNING: Cannot get cube for: http://129.252.139.124/thredds/dodsC/fldep.redbaypoint..nc
Cannot find ['sea_water_temperature', 'sea_surface_temperature', 'sea_water_potential_temperature', 'equivalent_potential_temperature', 'sea_water_conservative_temperature', 'pseudo_equivalent_potential_temperature'] in http://129.252.139.124/thredds/dodsC/fldep.redbaypoint..nc.
01:27:16 WARNING: Cannot get cube for: http://129.252.139.124/thredds/dodsC/fldep.naplesbay..nc
Cannot find ['sea_water_temperature', 'sea_surface_temperature', 'sea_water_potential_temperature', 'equivalent_potential_temperature', 'sea_water_conservative_temperature', 'pseudo_equivalent_potential_temperature'] in http://129.252.139.124/thredds/dodsC/fldep.naplesbay..nc.
01:27:32 WARNING: Cannot get cube for: http://129.252.139.124/thredds/dodsC/fldep.gordonriverinlet..nc
Cannot find ['sea_water_temperature', 'sea_surface_temperature', 'sea_water_potential_temperature', 'equivalent_potential_temperature', 'sea_water_conservative_temperature', 'pseudo_equivalent_potential_temperature'] in http://129.252.139.124/thredds/dodsC/fldep.gordonriverinlet..nc.
01:27:44 WARNING: Cannot get cube for: http://129.252.139.124/thredds/dodsC/fldep.melbourne..nc
Cannot find ['sea_water_temperature', 'sea_surface_temperature', 'sea_water_potential_temperature', 'equivalent_potential_temperature', 'sea_water_conservative_temperature', 'pseudo_equivalent_potential_temperature'] in http://129.252.139.124/thredds/dodsC/fldep.melbourne..nc.
01:28:13 WARNING: Cannot get cube for: http://129.252.139.124/thredds/dodsC/fldep.binneydock..nc
Cannot find ['sea_water_temperature', 'sea_surface_temperature', 'sea_water_potential_temperature', 'equivalent_potential_temperature', 'sea_water_conservative_temperature', 'pseudo_equivalent_potential_temperature'] in http://129.252.139.124/thredds/dodsC/fldep.binneydock..nc.
01:28:29 WARNING: Cannot get cube for: http://129.252.139.124/thredds/dodsC/fldep.verobeach..nc
Cannot find ['sea_water_temperature', 'sea_surface_temperature', 'sea_water_potential_temperature', 'equivalent_potential_temperature', 'sea_water_conservative_temperature', 'pseudo_equivalent_potential_temperature'] in http://129.252.139.124/thredds/dodsC/fldep.verobeach..nc.
01:30:53 WARNING: Cannot get cube for: http://129.252.139.124/thredds/dodsC/enp.ppta1.met.nc
Cannot find ['sea_water_temperature', 'sea_surface_temperature', 'sea_water_potential_temperature', 'equivalent_potential_temperature', 'sea_water_conservative_temperature', 'pseudo_equivalent_potential_temperature'] in http://129.252.139.124/thredds/dodsC/enp.ppta1.met.nc.
01:32:33 INFO: ********************* Collector offerings **********************
01:32:33 INFO: NOAA.NOS.CO-OPS SOS: 1052 offerings
01:32:35 INFO: SOS URL request: http://opendap.co-ops.nos.noaa.gov/ioos-dif-sos/SOS?eventTime=2014-07-01T12%3A00%3A00Z&service=SOS&offering=urn%3Aioos%3Anetwork%3ANOAA.NOS.CO-OPS%3AMetActive&request=GetObservation&version=1.0.0&responseFormat=text%2Fcsv&featureOfInterest=BBOX%3A-87.4%2C24.25%2C-74.7%2C36.7&observedProperty=sea_water_temperature
01:37:07 INFO: ************************* Observations *************************
01:37:07 INFO: **** Downloading to file 2014-07-07/2014-07-07-OBS_DATA.nc *****
01:37:10 WARNING: /home/filipe/miniconda/envs/secoora-skill/lib/python2.7/site-packages/pandas/util/decorators.py:81: FutureWarning: the 'cols' keyword is deprecated, use 'subset' instead
  warnings.warn(msg, FutureWarning)

01:38:33 WARNING: /home/filipe/miniconda/envs/secoora-skill/lib/python2.7/site-packages/iris/fileformats/netcdf.py:1783: UserWarning: NetCDF default saving behaviour currently assigns the outermost dimensions to unlimited. This behaviour is to be deprecated, in favour of no automatic assignment. To switch to the new behaviour, set iris.FUTURE.netcdf_no_unlimited to True.
  warnings.warn(msg)

01:38:33 INFO: ********************* SECOORA Observations *********************
01:38:33 INFO:  Downloading to file 2014-07-07/2014-07-07-SECOORA_OBS_DATA.nc *
01:38:33 INFO: **************************** Models ****************************
01:38:33 INFO: 
[Reading url 1/10]: http://crow.marine.usf.edu:8080/thredds/dodsC/FVCOM-Nowcast-Agg.nc
01:38:49 INFO: 
[Reading url 2/10]: http://crow.marine.usf.edu:8080/thredds/dodsC/WFS_ROMS_NF_model/USF_Ocean_Circulation_Group_West_Florida_Shelf_Daily_ROMS_Nowcast_Forecast_Model_Data_best.ncd
01:39:00 INFO: 
[Reading url 3/10]: http://geoport.whoi.edu/thredds/dodsC/coawst_4/use/fmrc/coawst_4_use_best.ncd
01:39:50 INFO: 
[Reading url 4/10]: http://omgarch1.meas.ncsu.edu:8080/thredds/dodsC/fmrc/sabgom/SABGOM_Forecast_Model_Run_Collection_best.ncd
01:40:19 INFO: 
[Reading url 5/10]: http://oos.soest.hawaii.edu/thredds/dodsC/hioos/satellite/dhw
01:40:21 WARNING: [Not model data]: http://oos.soest.hawaii.edu/thredds/dodsC/hioos/satellite/dhw
01:40:21 INFO: 
[Reading url 6/10]: http://oos.soest.hawaii.edu/thredds/dodsC/pacioos/hycom/global
01:40:28 INFO: 
[Reading url 7/10]: http://tds.maracoos.org/thredds/dodsC/SST-Three-Agg.nc
01:40:32 WARNING: [Not model data]: http://tds.maracoos.org/thredds/dodsC/SST-Three-Agg.nc
01:40:32 INFO: 
[Reading url 8/10]: http://tds.marine.rutgers.edu/thredds/dodsC/roms/espresso/2013_da/his/ESPRESSO_Real-Time_v2_History_Best
01:40:51 INFO: 
[Reading url 9/10]: http://omgsrv1.meas.ncsu.edu:8080/thredds/dodsC/fmrc/us_east/US_East_Forecast_Model_Run_Collection_best.ncd
01:41:23 WARNING: Cannot get cube for: http://omgsrv1.meas.ncsu.edu:8080/thredds/dodsC/fmrc/us_east/US_East_Forecast_Model_Run_Collection_best.ncd
istart must be different from istop! Got istart 0 and  istop 0
01:41:23 INFO: 
[Reading url 10/10]: http://crow.marine.usf.edu:8080/thredds/dodsC/WFS_SWAN_NF_model/USF_Ocean_Circulation_Group_West_Florida_Shelf_Daily_SWAN_Nowcast_Forecast_Wave_Model_Data_best.ncd
01:41:25 WARNING: Cannot get cube for: http://crow.marine.usf.edu:8080/thredds/dodsC/WFS_SWAN_NF_model/USF_Ocean_Circulation_Group_West_Florida_Shelf_Daily_SWAN_Nowcast_Forecast_Wave_Model_Data_best.ncd
Cannot find ['sea_water_temperature', 'sea_surface_temperature', 'sea_water_potential_temperature', 'equivalent_potential_temperature', 'sea_water_conservative_temperature', 'pseudo_equivalent_potential_temperature'] in http://crow.marine.usf.edu:8080/thredds/dodsC/WFS_SWAN_NF_model/USF_Ocean_Circulation_Group_West_Florida_Shelf_Daily_SWAN_Nowcast_Forecast_Wave_Model_Data_best.ncd.
01:41:25 INFO: * Downloading to file 2014-07-07/2014-07-07-SABGOM_ARCHIVE.nc **
01:41:31 INFO: [Water  ] Duck, NC
01:41:43 INFO: [Water  ] Oregon Inlet Marina, NC
01:41:48 INFO: [Water  ] USCG Station Hatteras, NC
01:41:55 INFO: [Land   ] Beaufort, NC
01:42:09 INFO: [Land   ] Wilmington, NC
01:42:15 INFO: [Water  ] Wrightsville Beach, NC
01:42:23 INFO: [Water  ] Springmaid Pier, SC
01:42:38 INFO: [Land   ] Charleston, SC
01:42:52 INFO: [Land   ] Fort Pulaski, GA
01:43:06 INFO: [Land   ] Fernandina Beach, FL
01:43:19 INFO: [Land   ] Mayport (Bar Pilots Dock), FL
01:43:33 INFO: [Land   ] Dames Point, FL
01:43:46 INFO: [Land   ] Jacksonville University, FL
01:44:10 INFO: [Land   ] I-295 Bridge, St Johns River, FL
01:44:23 INFO: [Land   ] Red Bay Point, St Johns River, FL
01:44:40 INFO: [Land   ] Racy Point, St Johns River, FL
01:44:47 INFO: [Water  ] Trident Pier, FL
01:44:54 INFO: [Water  ] Lake Worth Pier, FL
01:45:02 INFO: [Water  ] Virginia Key, FL
01:45:09 INFO: [Water  ] Vaca Key, FL
01:45:16 INFO: [Water  ] Key West, FL
01:45:23 INFO: [Land   ] Naples, FL
01:45:29 INFO: [Land   ] Fort Myers, FL
01:45:36 INFO: [Water  ] Port Manatee, FL
01:45:42 INFO: [Water  ] St Petersburg, FL
01:45:50 INFO: [Water  ] Old Port Tampa, FL
01:46:03 INFO: [Land   ] Apalachicola, FL
01:46:17 INFO: [Land   ] Panama City, FL
01:46:24 INFO: [Water  ] Panama City Beach, FL
01:46:30 INFO: [Land   ] Pensacola, FL
01:46:38 INFO: [Water  ] Gulf of Mexico station
01:46:44 INFO: [Land   ] Taylor River, FL
01:46:51 INFO: [Water  ] Redfish Pass station
01:46:59 INFO: [Water  ] Little Rabbit Key, FL
01:47:06 INFO: [Water  ] Peterson Key, FL
01:47:20 INFO: [Land   ] fau_lobo_1
01:47:35 INFO: [Land   ] Cherry Grove Pier, N. Myrtle Beach, SC
01:47:43 INFO: [Water  ] Murray Key, FL
01:47:52 INFO: [Land   ] Broad River, FL
01:48:01 INFO: [Water  ] Tarpon Bay station
01:48:08 INFO: [Land   ] Blackwater Sound, FL
01:48:16 INFO: [Water  ] Butternut Key, FL
01:48:30 INFO: [Land   ] Shell Point station
01:48:38 INFO: [Land   ] Apache Pier, Myrtle Beach, SC
01:48:53 INFO: [Land   ] Little Blackwater, FL
01:49:00 INFO: [Water  ] Trout Cove, FL
01:49:16 INFO: [Land   ] White Water -West, FL
01:49:30 INFO: [Land   ] Cane Patch, FL
01:49:39 INFO: [Water  ] Sebastian Inlet met station
01:49:46 INFO: [Water  ] usf_c10_imet
01:50:03 INFO: [Water  ] Shell Point
01:50:10 INFO: [Land   ] Bing's Landing station
01:50:17 INFO: [Water  ] CAROCOOPS CAP2, Capers Island Nearshore, SC
01:50:24 INFO: [Water  ] Johnson Key, FL
01:50:31 INFO: [Land   ] Broad River Lower, FL
01:50:38 INFO: [Land   ] Clear Water Pass, FL 
01:50:45 INFO: [Water  ] Little Madeira, FL
01:50:59 INFO: [Land   ] Highway Creek, FL
01:51:16 INFO: [Land   ] Gunboat Island, FL
01:51:22 INFO: [Water  ] CAROCOOPS FRP2, Fripp Nearshore, SC
01:51:29 INFO: [Land   ] Cannon Bay, FL
01:51:35 INFO: [Water  ] 2nd Ave North Pier, Myrtle Beach, SC
01:51:42 INFO: [Land   ] Tolomato River station
01:51:49 INFO: [Water  ] Whipray Basin, FL
01:52:02 INFO: [Land   ] Garfield Bight, FL
01:52:16 INFO: [Land   ] Lane River, FL 
01:52:23 INFO: [Water  ] St Lucie Inlet station
01:52:30 INFO: [Water  ] Duck Key, FL
01:52:37 INFO: [Water  ] CORMP ILM3, Wrightsville Beach Offshore, NC
01:52:52 INFO: [Land   ] Fort Myers station
01:53:06 INFO: [Land   ] Willy Willy, FL
01:53:13 INFO: [Water  ] CAROCOOPS SUN2, Sunset Nearshore, NC
01:53:20 INFO: [Water  ] Bob Allen, FL
01:55:28 INFO: Finished processing [SABGOM_ARCHIVE]: http://crow.marine.usf.edu:8080/thredds/dodsC/WFS_SWAN_NF_model/USF_Ocean_Circulation_Group_West_Florida_Shelf_Daily_SWAN_Nowcast_Forecast_Wave_Model_Data_best.ncd

01:55:28 INFO: ****** Downloading to file 2014-07-07/2014-07-07-HYCOM.nc ******
01:55:33 INFO: [Land   ] Duck, NC
01:55:36 INFO: [Water  ] Oregon Inlet Marina, NC
01:55:39 INFO: [Land   ] USCG Station Hatteras, NC
01:55:42 INFO: [Land   ] Beaufort, NC
01:55:45 INFO: [Land   ] Wilmington, NC
01:55:48 INFO: [Water  ] Wrightsville Beach, NC
01:55:48 INFO: [No Data] Springmaid Pier, SC
01:55:51 INFO: [Land   ] Charleston, SC
01:55:55 INFO: [Land   ] Fort Pulaski, GA
01:56:04 INFO: [Land   ] Fernandina Beach, FL
01:56:10 INFO: [Land   ] Mayport (Bar Pilots Dock), FL
01:56:15 INFO: [Land   ] Dames Point, FL
01:56:23 INFO: [Land   ] Jacksonville University, FL
01:56:27 INFO: [Land   ] I-295 Bridge, St Johns River, FL
01:56:32 INFO: [Land   ] Red Bay Point, St Johns River, FL
01:56:32 INFO: [No Data] Racy Point, St Johns River, FL
01:56:38 INFO: [Land   ] Trident Pier, FL
01:56:42 INFO: [Water  ] Lake Worth Pier, FL
01:56:47 INFO: [Land   ] Virginia Key, FL
01:56:52 INFO: [Land   ] Vaca Key, FL
01:56:57 INFO: [Land   ] Key West, FL
01:56:57 INFO: [No Data] Naples, FL
01:57:01 INFO: [Land   ] Fort Myers, FL
01:57:06 INFO: [Land   ] Port Manatee, FL
01:57:10 INFO: [Land   ] St Petersburg, FL
01:57:14 INFO: [Land   ] Old Port Tampa, FL
01:57:19 INFO: [Land   ] Apalachicola, FL
01:57:23 INFO: [Land   ] Panama City, FL
01:57:23 INFO: [No Data] Panama City Beach, FL
01:57:29 INFO: [Land   ] Pensacola, FL
01:57:35 INFO: [Land   ] Gulf of Mexico station
01:57:39 INFO: [Land   ] Taylor River, FL
01:57:44 INFO: [Land   ] Redfish Pass station
01:57:48 INFO: [Land   ] Little Rabbit Key, FL
01:57:52 INFO: [Land   ] Peterson Key, FL
01:57:58 INFO: [Land   ] fau_lobo_1
01:58:02 INFO: [Land   ] Cherry Grove Pier, N. Myrtle Beach, SC
01:58:06 INFO: [Land   ] Murray Key, FL
01:58:06 INFO: [No Data] Broad River, FL
01:58:11 INFO: [Land   ] Tarpon Bay station
01:58:11 INFO: [No Data] Blackwater Sound, FL
01:58:14 INFO: [Land   ] Butternut Key, FL
01:58:19 INFO: [Land   ] Shell Point station
01:58:23 INFO: [Land   ] Apache Pier, Myrtle Beach, SC
01:58:27 INFO: [Land   ] Little Blackwater, FL
01:58:31 INFO: [Land   ] Trout Cove, FL
01:58:37 INFO: [Land   ] White Water -West, FL
01:58:41 INFO: [Land   ] Cane Patch, FL
01:58:45 INFO: [Land   ] Sebastian Inlet met station
01:58:49 INFO: [Water  ] usf_c10_imet
01:58:54 INFO: [Land   ] Shell Point
01:58:58 INFO: [Land   ] Bing's Landing station
01:59:02 INFO: [Water  ] CAROCOOPS CAP2, Capers Island Nearshore, SC
01:59:06 INFO: [Land   ] Johnson Key, FL
01:59:11 INFO: [Land   ] Broad River Lower, FL
01:59:15 INFO: [Land   ] Clear Water Pass, FL 
01:59:19 INFO: [Land   ] Little Madeira, FL
01:59:19 INFO: [No Data] Highway Creek, FL
01:59:24 INFO: [Land   ] Gunboat Island, FL
01:59:28 INFO: [Water  ] CAROCOOPS FRP2, Fripp Nearshore, SC
01:59:33 INFO: [Land   ] Cannon Bay, FL
01:59:37 INFO: [Land   ] 2nd Ave North Pier, Myrtle Beach, SC
01:59:41 INFO: [Land   ] Tolomato River station
01:59:45 INFO: [Land   ] Whipray Basin, FL
01:59:51 INFO: [Land   ] Garfield Bight, FL
01:59:55 INFO: [Land   ] Lane River, FL 
01:59:59 INFO: [Land   ] St Lucie Inlet station
02:00:03 INFO: [Land   ] Duck Key, FL
02:00:08 INFO: [Water  ] CORMP ILM3, Wrightsville Beach Offshore, NC
02:00:08 INFO: [No Data] Fort Myers station
02:00:16 INFO: [Land   ] Willy Willy, FL
02:00:20 INFO: [Water  ] CAROCOOPS SUN2, Sunset Nearshore, NC
02:00:20 INFO: [No Data] Bob Allen, FL
02:00:20 INFO: Finished processing [HYCOM]: http://crow.marine.usf.edu:8080/thredds/dodsC/WFS_SWAN_NF_model/USF_Ocean_Circulation_Group_West_Florida_Shelf_Daily_SWAN_Nowcast_Forecast_Wave_Model_Data_best.ncd

02:00:20 INFO: **** Downloading to file 2014-07-07/2014-07-07-USF_ROMS.nc *****
02:00:20 INFO: [No Data] Duck, NC
02:00:20 INFO: [No Data] Oregon Inlet Marina, NC
02:00:20 INFO: [No Data] USCG Station Hatteras, NC
02:00:20 INFO: [No Data] Beaufort, NC
02:00:20 INFO: [No Data] Wilmington, NC
02:00:20 INFO: [No Data] Wrightsville Beach, NC
02:00:20 INFO: [No Data] Springmaid Pier, SC
02:00:20 INFO: [No Data] Charleston, SC
02:00:20 INFO: [No Data] Fort Pulaski, GA
02:00:20 INFO: [No Data] Fernandina Beach, FL
02:00:20 INFO: [No Data] Mayport (Bar Pilots Dock), FL
02:00:20 INFO: [No Data] Dames Point, FL
02:00:20 INFO: [No Data] Jacksonville University, FL
02:00:20 INFO: [No Data] I-295 Bridge, St Johns River, FL
02:00:20 INFO: [No Data] Red Bay Point, St Johns River, FL
02:00:20 INFO: [No Data] Racy Point, St Johns River, FL
02:00:20 INFO: [No Data] Trident Pier, FL
02:00:20 INFO: [No Data] Lake Worth Pier, FL
02:00:20 INFO: [No Data] Virginia Key, FL
02:00:20 INFO: [No Data] Vaca Key, FL
02:00:20 INFO: [No Data] Key West, FL
02:00:26 INFO: [Water  ] Naples, FL
02:00:31 INFO: [Water  ] Fort Myers, FL
02:00:35 INFO: [Water  ] Port Manatee, FL
02:00:35 INFO: [No Data] St Petersburg, FL
02:00:40 INFO: [Water  ] Old Port Tampa, FL
02:00:45 INFO: [Water  ] Apalachicola, FL
02:00:50 INFO: [Water  ] Panama City, FL
02:00:55 INFO: [Water  ] Panama City Beach, FL
02:00:55 INFO: [No Data] Pensacola, FL
02:01:00 INFO: [Water  ] Gulf of Mexico station
02:01:00 INFO: [No Data] Taylor River, FL
02:01:06 INFO: [Water  ] Redfish Pass station
02:01:06 INFO: [No Data] Little Rabbit Key, FL
02:01:11 INFO: [Water  ] Peterson Key, FL
02:01:11 INFO: [No Data] fau_lobo_1
02:01:11 INFO: [No Data] Cherry Grove Pier, N. Myrtle Beach, SC
02:01:15 INFO: [Water  ] Murray Key, FL
02:01:20 INFO: [Water  ] Broad River, FL
02:01:26 INFO: [Water  ] Tarpon Bay station
02:01:31 INFO: [Water  ] Blackwater Sound, FL
02:01:36 INFO: [Water  ] Butternut Key, FL
02:01:41 INFO: [Water  ] Shell Point station
02:01:41 INFO: [No Data] Apache Pier, Myrtle Beach, SC
02:01:46 INFO: [Water  ] Little Blackwater, FL
02:01:46 INFO: [No Data] Trout Cove, FL
02:01:46 INFO: [No Data] White Water -West, FL
02:01:51 INFO: [Water  ] Cane Patch, FL
02:01:51 INFO: [No Data] Sebastian Inlet met station
02:02:00 INFO: [Water  ] usf_c10_imet
02:02:05 INFO: [Water  ] Shell Point
02:02:05 INFO: [No Data] Bing's Landing station
02:02:05 INFO: [No Data] CAROCOOPS CAP2, Capers Island Nearshore, SC
02:02:10 INFO: [Water  ] Johnson Key, FL
02:02:16 INFO: [Water  ] Broad River Lower, FL
02:02:20 INFO: [Water  ] Clear Water Pass, FL 
02:02:20 INFO: [No Data] Little Madeira, FL
02:02:26 INFO: [Water  ] Highway Creek, FL
02:02:26 INFO: [No Data] Gunboat Island, FL
02:02:26 INFO: [No Data] CAROCOOPS FRP2, Fripp Nearshore, SC
02:02:31 INFO: [Water  ] Cannon Bay, FL
02:02:31 INFO: [No Data] 2nd Ave North Pier, Myrtle Beach, SC
02:02:31 INFO: [No Data] Tolomato River station
02:02:31 INFO: [No Data] Whipray Basin, FL
02:02:31 INFO: [No Data] Garfield Bight, FL
02:02:36 INFO: [Water  ] Lane River, FL 
02:02:36 INFO: [No Data] St Lucie Inlet station
02:02:36 INFO: [No Data] Duck Key, FL
02:02:36 INFO: [No Data] CORMP ILM3, Wrightsville Beach Offshore, NC
02:02:36 INFO: [No Data] Fort Myers station
02:02:41 INFO: [Water  ] Willy Willy, FL
02:02:41 INFO: [No Data] CAROCOOPS SUN2, Sunset Nearshore, NC
02:02:46 INFO: [Water  ] Bob Allen, FL
02:03:51 INFO: Finished processing [USF_ROMS]: http://crow.marine.usf.edu:8080/thredds/dodsC/WFS_SWAN_NF_model/USF_Ocean_Circulation_Group_West_Florida_Shelf_Daily_SWAN_Nowcast_Forecast_Wave_Model_Data_best.ncd

02:03:51 INFO: **** Downloading to file 2014-07-07/2014-07-07-USF_FVCOM.nc ****
02:03:51 INFO: [No Data] Duck, NC
02:03:51 INFO: [No Data] Oregon Inlet Marina, NC
02:03:51 INFO: [No Data] USCG Station Hatteras, NC
02:03:51 INFO: [No Data] Beaufort, NC
02:03:51 INFO: [No Data] Wilmington, NC
02:03:51 INFO: [No Data] Wrightsville Beach, NC
02:03:51 INFO: [No Data] Springmaid Pier, SC
02:03:51 INFO: [No Data] Charleston, SC
02:03:51 INFO: [No Data] Fort Pulaski, GA
02:03:51 INFO: [No Data] Fernandina Beach, FL
02:03:51 INFO: [No Data] Mayport (Bar Pilots Dock), FL
02:03:51 INFO: [No Data] Dames Point, FL
02:03:51 INFO: [No Data] Jacksonville University, FL
02:03:51 INFO: [No Data] I-295 Bridge, St Johns River, FL
02:03:51 INFO: [No Data] Red Bay Point, St Johns River, FL
02:03:51 INFO: [No Data] Racy Point, St Johns River, FL
02:03:51 INFO: [No Data] Trident Pier, FL
02:03:51 INFO: [No Data] Lake Worth Pier, FL
02:03:51 INFO: [No Data] Virginia Key, FL
02:04:01 INFO: [Water  ] Vaca Key, FL
02:04:11 INFO: [Water  ] Key West, FL
02:04:21 INFO: [Water  ] Naples, FL
02:04:31 INFO: [Water  ] Fort Myers, FL
02:04:41 INFO: [Water  ] Port Manatee, FL
02:04:51 INFO: [Water  ] St Petersburg, FL
02:05:01 INFO: [Water  ] Old Port Tampa, FL
02:05:11 INFO: [Water  ] Apalachicola, FL
02:05:11 INFO: [No Data] Panama City, FL
02:05:16 INFO: [Water  ] Panama City Beach, FL
02:05:16 INFO: [No Data] Pensacola, FL
02:05:26 INFO: [Water  ] Gulf of Mexico station
02:05:26 INFO: [No Data] Taylor River, FL
02:05:31 INFO: [Water  ] Redfish Pass station
02:05:37 INFO: [Water  ] Little Rabbit Key, FL
02:05:42 INFO: [Water  ] Peterson Key, FL
02:05:42 INFO: [No Data] fau_lobo_1
02:05:42 INFO: [No Data] Cherry Grove Pier, N. Myrtle Beach, SC
02:05:46 INFO: [Water  ] Murray Key, FL
02:05:46 INFO: [No Data] Broad River, FL
02:05:52 INFO: [Water  ] Tarpon Bay station
02:05:52 INFO: [No Data] Blackwater Sound, FL
02:05:52 INFO: [No Data] Butternut Key, FL
02:05:59 INFO: [Water  ] Shell Point station
02:05:59 INFO: [No Data] Apache Pier, Myrtle Beach, SC
02:05:59 INFO: [No Data] Little Blackwater, FL
02:05:59 INFO: [No Data] Trout Cove, FL
02:05:59 INFO: [No Data] White Water -West, FL
02:05:59 INFO: [No Data] Cane Patch, FL
02:05:59 INFO: [No Data] Sebastian Inlet met station
02:06:09 INFO: [Water  ] usf_c10_imet
02:06:14 INFO: [Water  ] Shell Point
02:06:14 INFO: [No Data] Bing's Landing station
02:06:14 INFO: [No Data] CAROCOOPS CAP2, Capers Island Nearshore, SC
02:06:19 INFO: [Water  ] Johnson Key, FL
02:06:19 INFO: [No Data] Broad River Lower, FL
02:06:19 INFO: [No Data] Clear Water Pass, FL 
02:06:19 INFO: [No Data] Little Madeira, FL
02:06:19 INFO: [No Data] Highway Creek, FL
02:06:19 INFO: [No Data] Gunboat Island, FL
02:06:19 INFO: [No Data] CAROCOOPS FRP2, Fripp Nearshore, SC
02:06:19 INFO: [No Data] Cannon Bay, FL
02:06:19 INFO: [No Data] 2nd Ave North Pier, Myrtle Beach, SC
02:06:19 INFO: [No Data] Tolomato River station
02:06:24 INFO: [Water  ] Whipray Basin, FL
02:06:30 INFO: [Water  ] Garfield Bight, FL
02:06:30 INFO: [No Data] Lane River, FL 
02:06:30 INFO: [No Data] St Lucie Inlet station
02:06:30 INFO: [No Data] Duck Key, FL
02:06:30 INFO: [No Data] CORMP ILM3, Wrightsville Beach Offshore, NC
02:06:35 INFO: [Water  ] Fort Myers station
02:06:35 INFO: [No Data] Willy Willy, FL
02:06:35 INFO: [No Data] CAROCOOPS SUN2, Sunset Nearshore, NC
02:06:40 INFO: [Water  ] Bob Allen, FL
02:06:40 INFO: Finished processing [USF_FVCOM]: http://crow.marine.usf.edu:8080/thredds/dodsC/WFS_SWAN_NF_model/USF_Ocean_Circulation_Group_West_Florida_Shelf_Daily_SWAN_Nowcast_Forecast_Wave_Model_Data_best.ncd

02:06:40 INFO: **** Downloading to file 2014-07-07/2014-07-07-COAWST_4.nc *****
02:07:00 INFO: [Land   ] Duck, NC
02:07:09 INFO: [Water  ] Oregon Inlet Marina, NC
02:07:19 INFO: [Water  ] USCG Station Hatteras, NC
02:07:32 INFO: [Water  ] Beaufort, NC
02:07:43 INFO: [Land   ] Wilmington, NC
02:07:53 INFO: [Water  ] Wrightsville Beach, NC
02:08:05 INFO: [Water  ] Springmaid Pier, SC
02:08:31 INFO: [Water  ] Charleston, SC
02:08:41 INFO: [Land   ] Fort Pulaski, GA
02:09:01 INFO: [Land   ] Fernandina Beach, FL
02:09:23 INFO: [Land   ] Mayport (Bar Pilots Dock), FL
02:09:42 INFO: [Land   ] Dames Point, FL
02:10:03 INFO: [Land   ] Jacksonville University, FL
02:10:24 INFO: [Land   ] I-295 Bridge, St Johns River, FL
02:10:45 INFO: [Land   ] Red Bay Point, St Johns River, FL
02:10:55 INFO: [Land   ] Racy Point, St Johns River, FL
02:11:06 INFO: [Land   ] Trident Pier, FL
02:11:17 INFO: [Water  ] Lake Worth Pier, FL
02:11:37 INFO: [Water  ] Virginia Key, FL
02:12:01 INFO: [Land   ] Vaca Key, FL
02:12:11 INFO: [Water  ] Key West, FL
02:12:31 INFO: [Water  ] Naples, FL
02:12:51 INFO: [Land   ] Fort Myers, FL
02:13:03 INFO: [Land   ] Port Manatee, FL
02:13:23 INFO: [Water  ] St Petersburg, FL
02:13:33 INFO: [Water  ] Old Port Tampa, FL
02:13:43 INFO: [Water  ] Apalachicola, FL
02:13:54 INFO: [Water  ] Panama City, FL
02:14:08 INFO: [Water  ] Panama City Beach, FL
02:14:23 INFO: [Water  ] Pensacola, FL
02:14:33 INFO: [Water  ] Gulf of Mexico station
02:14:44 INFO: [Land   ] Taylor River, FL
02:14:55 INFO: [Water  ] Redfish Pass station
02:15:05 INFO: [Water  ] Little Rabbit Key, FL
02:15:15 INFO: [Water  ] Peterson Key, FL
02:15:36 INFO: [Water  ] fau_lobo_1
02:15:46 INFO: [Land   ] Cherry Grove Pier, N. Myrtle Beach, SC
02:15:58 INFO: [Water  ] Murray Key, FL
02:16:08 INFO: [Land   ] Broad River, FL
02:16:19 INFO: [Water  ] Tarpon Bay station
02:16:40 INFO: [Water  ] Blackwater Sound, FL
02:16:50 INFO: [Water  ] Butternut Key, FL
02:17:01 INFO: [Water  ] Shell Point station
02:17:11 INFO: [Land   ] Apache Pier, Myrtle Beach, SC
02:17:22 INFO: [Land   ] Little Blackwater, FL
02:17:42 INFO: [Land   ] Trout Cove, FL
02:17:52 INFO: [Water  ] White Water -West, FL
02:18:16 INFO: [Land   ] Cane Patch, FL
02:18:26 INFO: [Water  ] Sebastian Inlet met station
02:18:36 INFO: [Water  ] usf_c10_imet
02:18:56 INFO: [Water  ] Shell Point
02:19:06 INFO: [Land   ] Bing's Landing station
02:19:16 INFO: [Water  ] CAROCOOPS CAP2, Capers Island Nearshore, SC
02:19:26 INFO: [Water  ] Johnson Key, FL
02:19:37 INFO: [Land   ] Broad River Lower, FL
02:19:47 INFO: [Water  ] Clear Water Pass, FL 
02:19:58 INFO: [Water  ] Little Madeira, FL
02:20:19 INFO: [Land   ] Highway Creek, FL
02:20:40 INFO: [Land   ] Gunboat Island, FL
02:20:51 INFO: [Water  ] CAROCOOPS FRP2, Fripp Nearshore, SC
02:21:11 INFO: [Land   ] Cannon Bay, FL
02:21:20 INFO: [Water  ] 2nd Ave North Pier, Myrtle Beach, SC
02:21:31 INFO: [Land   ] Tolomato River station
02:21:41 INFO: [Water  ] Whipray Basin, FL
02:21:51 INFO: [Water  ] Garfield Bight, FL
02:22:03 INFO: [Land   ] Lane River, FL 
02:22:13 INFO: [Water  ] St Lucie Inlet station
02:22:24 INFO: [Water  ] Duck Key, FL
02:22:34 INFO: [Water  ] CORMP ILM3, Wrightsville Beach Offshore, NC
02:22:44 INFO: [Land   ] Fort Myers station
02:23:05 INFO: [Land   ] Willy Willy, FL
02:23:16 INFO: [Water  ] CAROCOOPS SUN2, Sunset Nearshore, NC
02:23:26 INFO: [Water  ] Bob Allen, FL
02:26:54 INFO: Finished processing [COAWST_4]: http://crow.marine.usf.edu:8080/thredds/dodsC/WFS_SWAN_NF_model/USF_Ocean_Circulation_Group_West_Florida_Shelf_Daily_SWAN_Nowcast_Forecast_Wave_Model_Data_best.ncd

02:26:54 INFO: ** Downloading to file 2014-07-07/2014-07-07-ROMS_ESPRESSO.nc **
02:27:10 INFO: [Land   ] Duck, NC
02:27:20 INFO: [Water  ] Oregon Inlet Marina, NC
02:27:30 INFO: [Land   ] USCG Station Hatteras, NC
02:27:41 INFO: [Water  ] Beaufort, NC
02:27:41 INFO: [No Data] Wilmington, NC
02:27:41 INFO: [No Data] Wrightsville Beach, NC
02:27:41 INFO: [No Data] Springmaid Pier, SC
02:27:41 INFO: [No Data] Charleston, SC
02:27:41 INFO: [No Data] Fort Pulaski, GA
02:27:41 INFO: [No Data] Fernandina Beach, FL
02:27:41 INFO: [No Data] Mayport (Bar Pilots Dock), FL
02:27:41 INFO: [No Data] Dames Point, FL
02:27:41 INFO: [No Data] Jacksonville University, FL
02:27:41 INFO: [No Data] I-295 Bridge, St Johns River, FL
02:27:41 INFO: [No Data] Red Bay Point, St Johns River, FL
02:27:41 INFO: [No Data] Racy Point, St Johns River, FL
02:27:41 INFO: [No Data] Trident Pier, FL
02:27:41 INFO: [No Data] Lake Worth Pier, FL
02:27:41 INFO: [No Data] Virginia Key, FL
02:27:41 INFO: [No Data] Vaca Key, FL
02:27:41 INFO: [No Data] Key West, FL
02:27:41 INFO: [No Data] Naples, FL
02:27:41 INFO: [No Data] Fort Myers, FL
02:27:41 INFO: [No Data] Port Manatee, FL
02:27:41 INFO: [No Data] St Petersburg, FL
02:27:41 INFO: [No Data] Old Port Tampa, FL
02:27:41 INFO: [No Data] Apalachicola, FL
02:27:41 INFO: [No Data] Panama City, FL
02:27:41 INFO: [No Data] Panama City Beach, FL
02:27:41 INFO: [No Data] Pensacola, FL
02:27:41 INFO: [No Data] Gulf of Mexico station
02:27:41 INFO: [No Data] Taylor River, FL
02:27:41 INFO: [No Data] Redfish Pass station
02:27:41 INFO: [No Data] Little Rabbit Key, FL
02:27:41 INFO: [No Data] Peterson Key, FL
02:27:41 INFO: [No Data] fau_lobo_1
02:27:41 INFO: [No Data] Cherry Grove Pier, N. Myrtle Beach, SC
02:27:41 INFO: [No Data] Murray Key, FL
02:27:41 INFO: [No Data] Broad River, FL
02:27:41 INFO: [No Data] Tarpon Bay station
02:27:41 INFO: [No Data] Blackwater Sound, FL
02:27:41 INFO: [No Data] Butternut Key, FL
02:27:41 INFO: [No Data] Shell Point station
02:27:41 INFO: [No Data] Apache Pier, Myrtle Beach, SC
02:27:41 INFO: [No Data] Little Blackwater, FL
02:27:41 INFO: [No Data] Trout Cove, FL
02:27:41 INFO: [No Data] White Water -West, FL
02:27:41 INFO: [No Data] Cane Patch, FL
02:27:41 INFO: [No Data] Sebastian Inlet met station
02:27:41 INFO: [No Data] usf_c10_imet
02:27:41 INFO: [No Data] Shell Point
02:27:41 INFO: [No Data] Bing's Landing station
02:27:41 INFO: [No Data] CAROCOOPS CAP2, Capers Island Nearshore, SC
02:27:41 INFO: [No Data] Johnson Key, FL
02:27:41 INFO: [No Data] Broad River Lower, FL
02:27:41 INFO: [No Data] Clear Water Pass, FL 
02:27:41 INFO: [No Data] Little Madeira, FL
02:27:41 INFO: [No Data] Highway Creek, FL
02:27:41 INFO: [No Data] Gunboat Island, FL
02:27:41 INFO: [No Data] CAROCOOPS FRP2, Fripp Nearshore, SC
02:27:41 INFO: [No Data] Cannon Bay, FL
02:27:41 INFO: [No Data] 2nd Ave North Pier, Myrtle Beach, SC
02:27:41 INFO: [No Data] Tolomato River station
02:27:41 INFO: [No Data] Whipray Basin, FL
02:27:41 INFO: [No Data] Garfield Bight, FL
02:27:41 INFO: [No Data] Lane River, FL 
02:27:41 INFO: [No Data] St Lucie Inlet station
02:27:41 INFO: [No Data] Duck Key, FL
02:27:41 INFO: [No Data] CORMP ILM3, Wrightsville Beach Offshore, NC
02:27:41 INFO: [No Data] Fort Myers station
02:27:41 INFO: [No Data] Willy Willy, FL
02:27:41 INFO: [No Data] CAROCOOPS SUN2, Sunset Nearshore, NC
02:27:41 INFO: [No Data] Bob Allen, FL
02:27:49 INFO: Finished processing [ROMS_ESPRESSO]: http://crow.marine.usf.edu:8080/thredds/dodsC/WFS_SWAN_NF_model/USF_Ocean_Circulation_Group_West_Florida_Shelf_Daily_SWAN_Nowcast_Forecast_Wave_Model_Data_best.ncd

02:27:50 INFO: 72.13 minutes
02:27:50 INFO: EOF
