03:35:17 INFO: ************Saving data inside directory 2014-07-07*************
03:35:17 INFO: *********************** Run information ************************
03:35:17 INFO: Run date: 2015-08-07 18:35:17
03:35:17 INFO: Download start: 2014-07-01 12:00:00
03:35:17 INFO: Download stop: 2014-07-07 12:00:00
03:35:17 INFO: Bounding box: -87.40, 24.25,-74.70, 36.70
03:35:17 INFO: *********************** Software version ***********************
03:35:17 INFO: Iris version: 1.8.1
03:35:17 INFO: owslib version: 0.9.0
03:35:17 INFO: pyoos version: 0.6.2
03:35:34 INFO: ********************* Catalog information **********************
03:35:34 INFO: URL: http://www.ngdc.noaa.gov/geoportal/csw
03:35:34 INFO: CSW version: 2.0.2
03:35:34 INFO: Number of datasets available: 93
03:35:34 INFO: ***************************** CSW ******************************
03:35:34 INFO: USF FVCOM - Nowcast Aggregation
03:35:34 INFO: ROMS/TOMS 3.0 - New Floria Shelf Application
03:35:34 INFO: ROMS/TOMS 3.0 - South-Atlantic Bight and Gulf of Mexico
03:35:34 INFO: COAWST Forecast System : USGS : US East Coast and Gulf of Mexico (Experimental)
03:35:34 INFO: Directional wave and sea surface temperature measurements collected in situ by Datawell Mark 3 directional buoy located near MONTEREY CANYON OUTER, CA from 2013/07/11 17:00:00 to 2014/07/01 20:59:59.
03:35:34 INFO: Directional wave and sea surface temperature measurements collected in situ by Datawell Mark 3 directional buoy located near MONTEREY BAY WEST, CA from 2013/06/19 18:00:00 to 2014/07/01 14:59:59.
03:35:34 INFO: Directional wave and sea surface temperature measurements collected in situ by Datawell Mark 3 directional buoy located near MONTEREY BAY WEST, CA from 2014/07/01 19:00:00 to 2014/10/04 23:59:59.
03:35:34 INFO: Directional wave and sea surface temperature measurements collected in situ by Datawell Mark 3 directional buoy located near SAN FRANCISCO BAR, CA from 2013/06/19 22:00:00 to 2014/07/24 14:59:59.
03:35:34 INFO: Directional wave and sea surface temperature measurements collected in situ by Datawell Mark 3 directional buoy located near POINT REYES, CA from 2013/10/16 21:00:00 to 2014/09/05 11:59:59.
03:35:34 INFO: Directional wave and sea surface temperature measurements collected in situ by Datawell Mark 3 directional buoy located near HUMBOLDT BAY NORTH SPIT, CA from 2013/08/26 19:00:00 to 2014/07/24 03:59:59.
03:35:34 INFO: Directional wave and sea surface temperature measurements collected in situ by Datawell Mark 3 directional buoy located near UMPQUA OFFSHORE, OR from 2014/03/14 18:00:00 to 2015/05/21 16:59:59.
03:35:34 INFO: Directional wave and sea surface temperature measurements collected in situ by Datawell Mark 3 directional buoy located near DIABLO CANYON, CA from 2013/08/28 23:00:00 to 2014/10/29 16:59:59.
03:35:34 INFO: Directional wave and sea surface temperature measurements collected in situ by Datawell Mark 3 directional buoy located near CLATSOP SPIT, OR from 2013/07/18 20:00:00 to 2015/01/12 18:59:59.
03:35:34 INFO: Directional wave and sea surface temperature measurements collected in situ by Datawell Mark 3 directional buoy located near ASTORIA CANYON, OR from 2014/01/16 20:00:00 to 2014/09/29 22:59:59.
03:35:34 INFO: Directional wave and sea surface temperature measurements collected in situ by Datawell Mark 3 directional buoy located near GRAYS HARBOR, WA from 2013/10/13 19:00:00 to 2015/01/28 15:59:59.
03:35:34 INFO: Directional wave and sea surface temperature measurements collected in situ by Datawell Waverider buoys located near SAN FRANCISCO BAR, CA from 2007/07/25 to 2014/07/24.
03:35:34 INFO: Directional wave and sea surface temperature measurements collected in situ by Datawell Mark 3 directional buoy located near SANTA MONICA BAY, CA from 2013/12/18 21:00:00 to 2015/02/18 18:59:59.
03:35:34 INFO: Directional wave and sea surface temperature measurements collected in situ by Datawell Mark 3 directional buoy located near SANTA CRUZ BASIN, CA from 2013/07/09 15:00:00 to 2014/07/14 16:59:59.
03:35:34 INFO: Directional wave and sea surface temperature measurements collected in situ by Datawell Mark 3 directional buoy located near OCEAN STATION PAPA from 2012/10/04 21:00:00 to 2015/01/01 00:59:59.
03:35:34 INFO: Directional wave and sea surface temperature measurements collected in situ by Datawell Mark 3 directional buoy located near CAMP PENDLETON NEARSHORE, CA from 2014/06/16 21:00:00 to 2015/01/23 12:59:59.
03:35:34 INFO: Directional wave and sea surface temperature measurements collected in situ by Datawell Mark 3 directional buoy located near SCRIPPS NEARSHORE, CA from 2013/07/12 20:00:00 to 2015/01/07 17:59:59.
03:35:34 INFO: Directional wave and sea surface temperature measurements collected in situ by Datawell Waverider buoys located near OCEANSIDE OFFSHORE, CA from 1997/05/19 to 2015/03/04.
03:35:34 INFO: Directional wave and sea surface temperature measurements collected in situ by Datawell Mark 3 directional buoy located near POINT LOMA SOUTH, CA from 2013/08/12 20:00:00 to 2014/09/10 07:59:59.
03:35:34 INFO: Directional wave and sea surface temperature measurements collected in situ by Datawell Waverider buoys located near MOKAPU POINT, HI from 2000/08/09 to 2014/09/10.
03:35:34 INFO: ROMS ESPRESSO Real-Time Operational IS4DVAR Forecast System Version 2 (NEW) 2013-present FMRC History (Best)
03:35:34 INFO: Directional wave and sea surface temperature measurements collected in situ by Datawell Waverider buoys located near SANTA MONICA BAY, CA from 2000/03/16 to 2015/02/18.
03:35:34 INFO: Directional wave and sea surface temperature measurements collected in situ by Datawell Waverider buoys located near UMPQUA OFFSHORE, OR from 2006/07/12 to 2015/05/21.
03:35:34 INFO: Directional wave and sea surface temperature measurements collected in situ by Datawell Mark 3 directional buoy located near FERNANDINA BEACH, FL from 2013/12/17 18:00:00 to 2015/01/29 16:59:59.
03:35:34 INFO: NDBC Standard Meteorological Buoy Data
03:35:34 INFO: Directional wave and sea surface temperature measurements collected in situ by Datawell Waverider buoys located near POINT REYES, CA from 1996/12/06 to 2015/05/29.
03:35:34 INFO: Directional wave and sea surface temperature measurements collected in situ by Datawell Waverider buoys located near HARVEST, CA from 1991/10/22 to 2015/07/09.
03:35:34 INFO: HYbrid Coordinate Ocean Model (HYCOM): Global
03:35:34 INFO: National Data Buoy Center SOS
03:35:34 INFO: G1SST, 1km blended SST
03:35:34 INFO: NOAA Coral Reef Watch Operational Twice-Weekly Near-Real-Time Global 50km Satellite Coral Bleaching Monitoring Products
03:35:34 INFO: Directional wave and sea surface temperature measurements collected in situ by Datawell Mark 3 directional buoy located near ST. PETERSBURG OFFSHORE, FL from 2013/12/03 19:00:00 to 2015/02/24 15:59:59.
03:35:34 INFO: Directional wave and sea surface temperature measurements collected in situ by Datawell Mark 3 directional buoy located near MASONBORO INLET, ILM2, NC from 2014/03/14 16:00:00 to 2015/01/06 13:59:59.where the water depth is approximately
03:35:34 INFO: Directional wave and sea surface temperature measurements collected in situ by Datawell Mark 3 directional buoy located near CAPE CANAVERAL NEARSHORE, FL from 2014/05/28 20:00:00 to 2015/06/05 12:59:59.
03:35:34 INFO: Directional wave and sea surface temperature measurements collected in situ by Datawell Mark 3 directional buoy located near FORT PIERCE, FL from 2013/12/05 17:00:00 to 2015/03/19 13:59:59.
03:35:34 INFO: Directional wave and sea surface temperature measurements collected in situ by Datawell Waverider buoys located near DUCK FRF 26m, NC from 2008/05/22 to 2015/05/06.
03:35:34 INFO: Directional wave and sea surface temperature measurements collected in situ by Datawell Mark 3 directional buoy located near CAPE CHARLES, VA from 2013/09/11 18:00:00 to 2015/02/18 11:59:59.
03:35:34 INFO: Directional wave and sea surface temperature measurements collected in situ by Datawell Waverider buoys located near CAPE CANAVERAL NEARSHORE, FL from 2006/09/07 to 2015/06/05.
03:35:34 INFO: Directional wave and sea surface temperature measurements collected in situ by Datawell Mark 3 directional buoy located near OREGON INLET, NC from 2013/07/17 17:00:00 to 2015/02/01 16:59:59.
03:35:34 INFO: Directional wave and sea surface temperature measurements collected in situ by Datawell Waverider buoys located near FERNANDINA BEACH, FL from 2006/02/09 to 2015/01/29.
03:35:34 INFO: Directional wave and sea surface temperature measurements collected in situ by Datawell Waverider buoys located near MASONBORO INLET, ILM2, NC from 2008/05/07 to 2015/01/06.
03:35:34 INFO: Directional wave and sea surface temperature measurements collected in situ by Datawell Waverider buoys located near ST. PETERSBURG OFFSHORE, FL from 2007/07/10 to 2015/02/24.
03:35:34 INFO: Directional wave and sea surface temperature measurements collected in situ by Datawell Waverider buoys located near OREGON INLET, NC from 2012/04/08 to 2015/02/01.
03:35:34 INFO: Directional wave and sea surface temperature measurements collected in situ by Datawell Waverider buoys located near FORT PIERCE, FL from 2006/09/29 to 2015/03/19.
03:35:34 INFO: Directional wave and sea surface temperature measurements collected in situ by Datawell Waverider buoys located near NEW RIVER INLET, NC from 2012/04/14 to 2014/07/11.
03:35:34 INFO: Directional wave and sea surface temperature measurements collected in situ by Datawell Mark 3 directional buoy located near NEW RIVER INLET, NC from 2014/03/09 19:00:00 to 2014/07/11 23:59:59.
03:35:34 INFO: lbhmc.apachepier.pier
03:35:34 INFO: lbhmc.cherrygrove.pier
03:35:34 INFO: sccf.fortmyers.wq
03:35:34 INFO: sccf.gulfofmexico.wq
03:35:34 INFO: sccf.redfishpass.wq
03:35:34 INFO: sccf.shellpoint.wq
03:35:34 INFO: sccf.tarponbay.wq
03:35:34 INFO: usf.c21.weatherpak
03:35:34 INFO: usf.shp.ngwlms
03:35:34 INFO: enp.bdvf1.met
03:35:34 INFO: enp.bnkf1.met
03:35:34 INFO: enp.bobf1.met
03:35:34 INFO: enp.bwsf1.met
03:35:34 INFO: enp.canf1.met
03:35:34 INFO: enp.cnbf1.met
03:35:34 INFO: enp.cwaf1.met
03:35:34 INFO: enp.dkkf1.met
03:35:34 INFO: enp.gbif1.met
03:35:34 INFO: enp.gbtf1.met
03:35:34 INFO: enp.hcef1.met
03:35:34 INFO: enp.jkyf1.met
03:35:34 INFO: enp.lbrf1.met
03:35:34 INFO: enp.lbsf1.met
03:35:34 INFO: enp.lmdf1.met
03:35:34 INFO: enp.lrif1.met
03:35:34 INFO: enp.lrkf1.met
03:35:34 INFO: enp.mukf1.met
03:35:34 INFO: enp.pkyf1.met
03:35:34 INFO: enp.tcvf1.met
03:35:34 INFO: enp.trrf1.met
03:35:34 INFO: enp.wiwf1.met
03:35:34 INFO: enp.wrbf1.met
03:35:34 INFO: enp.wwef1.met
03:35:34 INFO: fau.lobo.1
03:35:34 INFO: fldep.bingslanding.
03:35:34 INFO: fldep.stlucieinlet.
03:35:34 INFO: fldep.tolomatoriver.
03:35:34 INFO: carocoops.cap2.buoy
03:35:34 INFO: carocoops.cap2.buoy
03:35:34 INFO: carocoops.frp2.buoy
03:35:34 INFO: carocoops.frp2.buoy
03:35:34 INFO: carocoops.sun2.buoy
03:35:34 INFO: lbhmc.2ndave.pier
03:35:34 INFO: ***************************** SOS ******************************
03:35:34 INFO: http://sdf.ndbc.noaa.gov/sos/server.php?service=SOS&request=GetCapabilities&acceptVersions=1.0.0
03:35:34 INFO: http://tds.secoora.org/thredds/sos/carocoops.cap2.buoy.nc?service=SOS&version=1.0.0&request=GetCapabilities
03:35:34 INFO: http://tds.secoora.org/thredds/sos/carocoops.cap2.buoy_archive.nc?service=SOS&version=1.0.0&request=GetCapabilities
03:35:34 INFO: http://tds.secoora.org/thredds/sos/carocoops.frp2.buoy.nc?service=SOS&version=1.0.0&request=GetCapabilities
03:35:34 INFO: http://tds.secoora.org/thredds/sos/carocoops.frp2.buoy_archive.nc?service=SOS&version=1.0.0&request=GetCapabilities
03:35:34 INFO: http://tds.secoora.org/thredds/sos/carocoops.sun2.buoy_archive.nc?service=SOS&version=1.0.0&request=GetCapabilities
03:35:34 INFO: http://tds.secoora.org/thredds/sos/enp.bdvf1.met.nc?service=SOS&version=1.0.0&request=GetCapabilities
03:35:34 INFO: http://tds.secoora.org/thredds/sos/enp.bnkf1.met.nc?service=SOS&version=1.0.0&request=GetCapabilities
03:35:34 INFO: http://tds.secoora.org/thredds/sos/enp.bobf1.met.nc?service=SOS&version=1.0.0&request=GetCapabilities
03:35:34 INFO: http://tds.secoora.org/thredds/sos/enp.bwsf1.met.nc?service=SOS&version=1.0.0&request=GetCapabilities
03:35:34 INFO: http://tds.secoora.org/thredds/sos/enp.canf1.met.nc?service=SOS&version=1.0.0&request=GetCapabilities
03:35:34 INFO: http://tds.secoora.org/thredds/sos/enp.cnbf1.met.nc?service=SOS&version=1.0.0&request=GetCapabilities
03:35:34 INFO: http://tds.secoora.org/thredds/sos/enp.cwaf1.met.nc?service=SOS&version=1.0.0&request=GetCapabilities
03:35:34 INFO: http://tds.secoora.org/thredds/sos/enp.dkkf1.met.nc?service=SOS&version=1.0.0&request=GetCapabilities
03:35:34 INFO: http://tds.secoora.org/thredds/sos/enp.gbif1.met.nc?service=SOS&version=1.0.0&request=GetCapabilities
03:35:34 INFO: http://tds.secoora.org/thredds/sos/enp.gbtf1.met.nc?service=SOS&version=1.0.0&request=GetCapabilities
03:35:34 INFO: http://tds.secoora.org/thredds/sos/enp.hcef1.met.nc?service=SOS&version=1.0.0&request=GetCapabilities
03:35:34 INFO: http://tds.secoora.org/thredds/sos/enp.jkyf1.met.nc?service=SOS&version=1.0.0&request=GetCapabilities
03:35:34 INFO: http://tds.secoora.org/thredds/sos/enp.lbrf1.met.nc?service=SOS&version=1.0.0&request=GetCapabilities
03:35:34 INFO: http://tds.secoora.org/thredds/sos/enp.lbsf1.met.nc?service=SOS&version=1.0.0&request=GetCapabilities
03:35:34 INFO: http://tds.secoora.org/thredds/sos/enp.lmdf1.met.nc?service=SOS&version=1.0.0&request=GetCapabilities
03:35:34 INFO: http://tds.secoora.org/thredds/sos/enp.lrif1.met.nc?service=SOS&version=1.0.0&request=GetCapabilities
03:35:34 INFO: http://tds.secoora.org/thredds/sos/enp.lrkf1.met.nc?service=SOS&version=1.0.0&request=GetCapabilities
03:35:34 INFO: http://tds.secoora.org/thredds/sos/enp.mukf1.met.nc?service=SOS&version=1.0.0&request=GetCapabilities
03:35:34 INFO: http://tds.secoora.org/thredds/sos/enp.pkyf1.met.nc?service=SOS&version=1.0.0&request=GetCapabilities
03:35:34 INFO: http://tds.secoora.org/thredds/sos/enp.tcvf1.met.nc?service=SOS&version=1.0.0&request=GetCapabilities
03:35:34 INFO: http://tds.secoora.org/thredds/sos/enp.trrf1.met.nc?service=SOS&version=1.0.0&request=GetCapabilities
03:35:34 INFO: http://tds.secoora.org/thredds/sos/enp.wiwf1.met.nc?service=SOS&version=1.0.0&request=GetCapabilities
03:35:34 INFO: http://tds.secoora.org/thredds/sos/enp.wrbf1.met.nc?service=SOS&version=1.0.0&request=GetCapabilities
03:35:34 INFO: http://tds.secoora.org/thredds/sos/enp.wwef1.met.nc?service=SOS&version=1.0.0&request=GetCapabilities
03:35:34 INFO: http://tds.secoora.org/thredds/sos/fau.lobo.1.nc?service=SOS&version=1.0.0&request=GetCapabilities
03:35:34 INFO: http://tds.secoora.org/thredds/sos/fldep.bingslanding..nc?service=SOS&version=1.0.0&request=GetCapabilities
03:35:34 INFO: http://tds.secoora.org/thredds/sos/fldep.stlucieinlet..nc?service=SOS&version=1.0.0&request=GetCapabilities
03:35:34 INFO: http://tds.secoora.org/thredds/sos/fldep.tolomatoriver..nc?service=SOS&version=1.0.0&request=GetCapabilities
03:35:34 INFO: http://tds.secoora.org/thredds/sos/lbhmc.2ndave.pier.nc?service=SOS&version=1.0.0&request=GetCapabilities
03:35:34 INFO: http://tds.secoora.org/thredds/sos/lbhmc.apachepier.pier.nc?service=SOS&version=1.0.0&request=GetCapabilities
03:35:34 INFO: http://tds.secoora.org/thredds/sos/lbhmc.cherrygrove.pier.nc?service=SOS&version=1.0.0&request=GetCapabilities
03:35:34 INFO: http://tds.secoora.org/thredds/sos/sccf.fortmyers.wq.nc?service=SOS&version=1.0.0&request=GetCapabilities
03:35:34 INFO: http://tds.secoora.org/thredds/sos/sccf.gulfofmexico.wq.nc?service=SOS&version=1.0.0&request=GetCapabilities
03:35:34 INFO: http://tds.secoora.org/thredds/sos/sccf.redfishpass.wq.nc?service=SOS&version=1.0.0&request=GetCapabilities
03:35:34 INFO: http://tds.secoora.org/thredds/sos/sccf.shellpoint.wq.nc?service=SOS&version=1.0.0&request=GetCapabilities
03:35:34 INFO: http://tds.secoora.org/thredds/sos/sccf.tarponbay.wq.nc?service=SOS&version=1.0.0&request=GetCapabilities
03:35:34 INFO: http://tds.secoora.org/thredds/sos/usf.c21.weatherpak.nc?service=SOS&version=1.0.0&request=GetCapabilities
03:35:34 INFO: http://tds.secoora.org/thredds/sos/usf.shp.ngwlms.nc?service=SOS&version=1.0.0&request=GetCapabilities
03:35:34 INFO: http://thredds.cdip.ucsd.edu/thredds/sos/cdip/archive/028p1/028p1_d16.nc?service=SOS&version=1.0.0&request=GetCapabilities
03:35:34 INFO: http://thredds.cdip.ucsd.edu/thredds/sos/cdip/archive/028p1/028p1_historic.nc?service=SOS&version=1.0.0&request=GetCapabilities
03:35:34 INFO: http://thredds.cdip.ucsd.edu/thredds/sos/cdip/archive/029p1/029p1_d19.nc?service=SOS&version=1.0.0&request=GetCapabilities
03:35:34 INFO: http://thredds.cdip.ucsd.edu/thredds/sos/cdip/archive/029p1/029p1_historic.nc?service=SOS&version=1.0.0&request=GetCapabilities
03:35:34 INFO: http://thredds.cdip.ucsd.edu/thredds/sos/cdip/archive/036p1/036p1_d40.nc?service=SOS&version=1.0.0&request=GetCapabilities
03:35:34 INFO: http://thredds.cdip.ucsd.edu/thredds/sos/cdip/archive/043p1/043p1_d17.nc?service=SOS&version=1.0.0&request=GetCapabilities
03:35:34 INFO: http://thredds.cdip.ucsd.edu/thredds/sos/cdip/archive/045p1/045p1_historic.nc?service=SOS&version=1.0.0&request=GetCapabilities
03:35:34 INFO: http://thredds.cdip.ucsd.edu/thredds/sos/cdip/archive/071p1/071p1_historic.nc?service=SOS&version=1.0.0&request=GetCapabilities
03:35:34 INFO: http://thredds.cdip.ucsd.edu/thredds/sos/cdip/archive/076p1/076p1_d27.nc?service=SOS&version=1.0.0&request=GetCapabilities
03:35:34 INFO: http://thredds.cdip.ucsd.edu/thredds/sos/cdip/archive/098p1/098p1_historic.nc?service=SOS&version=1.0.0&request=GetCapabilities
03:35:34 INFO: http://thredds.cdip.ucsd.edu/thredds/sos/cdip/archive/132p1/132p1_d11.nc?service=SOS&version=1.0.0&request=GetCapabilities
03:35:34 INFO: http://thredds.cdip.ucsd.edu/thredds/sos/cdip/archive/132p1/132p1_historic.nc?service=SOS&version=1.0.0&request=GetCapabilities
03:35:34 INFO: http://thredds.cdip.ucsd.edu/thredds/sos/cdip/archive/134p1/134p1_d09.nc?service=SOS&version=1.0.0&request=GetCapabilities
03:35:34 INFO: http://thredds.cdip.ucsd.edu/thredds/sos/cdip/archive/134p1/134p1_historic.nc?service=SOS&version=1.0.0&request=GetCapabilities
03:35:34 INFO: http://thredds.cdip.ucsd.edu/thredds/sos/cdip/archive/139p1/139p1_d08.nc?service=SOS&version=1.0.0&request=GetCapabilities
03:35:34 INFO: http://thredds.cdip.ucsd.edu/thredds/sos/cdip/archive/139p1/139p1_historic.nc?service=SOS&version=1.0.0&request=GetCapabilities
03:35:34 INFO: http://thredds.cdip.ucsd.edu/thredds/sos/cdip/archive/142p1/142p1_d14.nc?service=SOS&version=1.0.0&request=GetCapabilities
03:35:34 INFO: http://thredds.cdip.ucsd.edu/thredds/sos/cdip/archive/142p1/142p1_historic.nc?service=SOS&version=1.0.0&request=GetCapabilities
03:35:34 INFO: http://thredds.cdip.ucsd.edu/thredds/sos/cdip/archive/143p1/143p1_d11.nc?service=SOS&version=1.0.0&request=GetCapabilities
03:35:34 INFO: http://thredds.cdip.ucsd.edu/thredds/sos/cdip/archive/143p1/143p1_historic.nc?service=SOS&version=1.0.0&request=GetCapabilities
03:35:34 INFO: http://thredds.cdip.ucsd.edu/thredds/sos/cdip/archive/144p1/144p1_d07.nc?service=SOS&version=1.0.0&request=GetCapabilities
03:35:34 INFO: http://thredds.cdip.ucsd.edu/thredds/sos/cdip/archive/144p1/144p1_historic.nc?service=SOS&version=1.0.0&request=GetCapabilities
03:35:34 INFO: http://thredds.cdip.ucsd.edu/thredds/sos/cdip/archive/150p1/150p1_d07.nc?service=SOS&version=1.0.0&request=GetCapabilities
03:35:34 INFO: http://thredds.cdip.ucsd.edu/thredds/sos/cdip/archive/150p1/150p1_historic.nc?service=SOS&version=1.0.0&request=GetCapabilities
03:35:34 INFO: http://thredds.cdip.ucsd.edu/thredds/sos/cdip/archive/156p1/156p1_d07.nc?service=SOS&version=1.0.0&request=GetCapabilities
03:35:34 INFO: http://thredds.cdip.ucsd.edu/thredds/sos/cdip/archive/162p1/162p1_d04.nc?service=SOS&version=1.0.0&request=GetCapabilities
03:35:34 INFO: http://thredds.cdip.ucsd.edu/thredds/sos/cdip/archive/166p1/166p1_d02.nc?service=SOS&version=1.0.0&request=GetCapabilities
03:35:34 INFO: http://thredds.cdip.ucsd.edu/thredds/sos/cdip/archive/168p1/168p1_d05.nc?service=SOS&version=1.0.0&request=GetCapabilities
03:35:34 INFO: http://thredds.cdip.ucsd.edu/thredds/sos/cdip/archive/179p1/179p1_d04.nc?service=SOS&version=1.0.0&request=GetCapabilities
03:35:34 INFO: http://thredds.cdip.ucsd.edu/thredds/sos/cdip/archive/185p1/185p1_d02.nc?service=SOS&version=1.0.0&request=GetCapabilities
03:35:34 INFO: http://thredds.cdip.ucsd.edu/thredds/sos/cdip/archive/185p1/185p1_d03.nc?service=SOS&version=1.0.0&request=GetCapabilities
03:35:34 INFO: http://thredds.cdip.ucsd.edu/thredds/sos/cdip/archive/186p1/186p1_d03.nc?service=SOS&version=1.0.0&request=GetCapabilities
03:35:34 INFO: http://thredds.cdip.ucsd.edu/thredds/sos/cdip/archive/190p1/190p1_d02.nc?service=SOS&version=1.0.0&request=GetCapabilities
03:35:34 INFO: http://thredds.cdip.ucsd.edu/thredds/sos/cdip/archive/190p1/190p1_historic.nc?service=SOS&version=1.0.0&request=GetCapabilities
03:35:34 INFO: http://thredds.cdip.ucsd.edu/thredds/sos/cdip/archive/191p1/191p1_d12.nc?service=SOS&version=1.0.0&request=GetCapabilities
03:35:34 INFO: http://thredds.cdip.ucsd.edu/thredds/sos/cdip/archive/192p1/192p1_d02.nc?service=SOS&version=1.0.0&request=GetCapabilities
03:35:34 INFO: http://thredds.cdip.ucsd.edu/thredds/sos/cdip/archive/192p1/192p1_historic.nc?service=SOS&version=1.0.0&request=GetCapabilities
03:35:34 INFO: http://thredds.cdip.ucsd.edu/thredds/sos/cdip/archive/201p1/201p1_d02.nc?service=SOS&version=1.0.0&request=GetCapabilities
03:35:34 INFO: http://thredds.cdip.ucsd.edu/thredds/sos/cdip/archive/203p1/203p1_d01.nc?service=SOS&version=1.0.0&request=GetCapabilities
03:35:34 INFO: http://thredds.cdip.ucsd.edu/thredds/sos/cdip/archive/430p1/430p1_historic.nc?service=SOS&version=1.0.0&request=GetCapabilities
03:35:34 INFO: ***************************** DAP ******************************
03:35:34 INFO: http://crow.marine.usf.edu:8080/thredds/dodsC/FVCOM-Nowcast-Agg.nc.html
03:35:34 INFO: http://crow.marine.usf.edu:8080/thredds/dodsC/WFS_ROMS_NF_model/USF_Ocean_Circulation_Group_West_Florida_Shelf_Daily_ROMS_Nowcast_Forecast_Model_Data_best.ncd.html
03:35:34 INFO: http://geoport.whoi.edu/thredds/dodsC/coawst_4/use/fmrc/coawst_4_use_best.ncd.html
03:35:34 INFO: http://omgsrv1.meas.ncsu.edu:8080/thredds/dodsC/fmrc/sabgom/SABGOM_Forecast_Model_Run_Collection_best.ncd.html
03:35:34 INFO: http://oos.soest.hawaii.edu/thredds/dodsC/hioos/satellite/dhw.html
03:35:34 INFO: http://oos.soest.hawaii.edu/thredds/dodsC/pacioos/hycom/global.html
03:35:34 INFO: http://tds.marine.rutgers.edu/thredds/dodsC/roms/espresso/2013_da/his_Best/ESPRESSO_Real-Time_v2_History_Best_Available_best.ncd.html
03:35:34 INFO: http://tds.secoora.org/thredds/dodsC/carocoops.cap2.buoy.nc.html
03:35:34 INFO: http://tds.secoora.org/thredds/dodsC/carocoops.cap2.buoy_archive.nc.html
03:35:34 INFO: http://tds.secoora.org/thredds/dodsC/carocoops.frp2.buoy.nc.html
03:35:34 INFO: http://tds.secoora.org/thredds/dodsC/carocoops.frp2.buoy_archive.nc.html
03:35:34 INFO: http://tds.secoora.org/thredds/dodsC/carocoops.sun2.buoy_archive.nc.html
03:35:34 INFO: http://tds.secoora.org/thredds/dodsC/enp.bdvf1.met.nc.html
03:35:34 INFO: http://tds.secoora.org/thredds/dodsC/enp.bnkf1.met.nc.html
03:35:34 INFO: http://tds.secoora.org/thredds/dodsC/enp.bobf1.met.nc.html
03:35:34 INFO: http://tds.secoora.org/thredds/dodsC/enp.bwsf1.met.nc.html
03:35:34 INFO: http://tds.secoora.org/thredds/dodsC/enp.canf1.met.nc.html
03:35:34 INFO: http://tds.secoora.org/thredds/dodsC/enp.cnbf1.met.nc.html
03:35:34 INFO: http://tds.secoora.org/thredds/dodsC/enp.cwaf1.met.nc.html
03:35:34 INFO: http://tds.secoora.org/thredds/dodsC/enp.dkkf1.met.nc.html
03:35:34 INFO: http://tds.secoora.org/thredds/dodsC/enp.gbif1.met.nc.html
03:35:34 INFO: http://tds.secoora.org/thredds/dodsC/enp.gbtf1.met.nc.html
03:35:34 INFO: http://tds.secoora.org/thredds/dodsC/enp.hcef1.met.nc.html
03:35:34 INFO: http://tds.secoora.org/thredds/dodsC/enp.jkyf1.met.nc.html
03:35:34 INFO: http://tds.secoora.org/thredds/dodsC/enp.lbrf1.met.nc.html
03:35:34 INFO: http://tds.secoora.org/thredds/dodsC/enp.lbsf1.met.nc.html
03:35:34 INFO: http://tds.secoora.org/thredds/dodsC/enp.lmdf1.met.nc.html
03:35:34 INFO: http://tds.secoora.org/thredds/dodsC/enp.lrif1.met.nc.html
03:35:34 INFO: http://tds.secoora.org/thredds/dodsC/enp.lrkf1.met.nc.html
03:35:34 INFO: http://tds.secoora.org/thredds/dodsC/enp.mukf1.met.nc.html
03:35:34 INFO: http://tds.secoora.org/thredds/dodsC/enp.pkyf1.met.nc.html
03:35:34 INFO: http://tds.secoora.org/thredds/dodsC/enp.tcvf1.met.nc.html
03:35:34 INFO: http://tds.secoora.org/thredds/dodsC/enp.trrf1.met.nc.html
03:35:34 INFO: http://tds.secoora.org/thredds/dodsC/enp.wiwf1.met.nc.html
03:35:34 INFO: http://tds.secoora.org/thredds/dodsC/enp.wrbf1.met.nc.html
03:35:34 INFO: http://tds.secoora.org/thredds/dodsC/enp.wwef1.met.nc.html
03:35:34 INFO: http://tds.secoora.org/thredds/dodsC/fau.lobo.1.nc.html
03:35:34 INFO: http://tds.secoora.org/thredds/dodsC/fldep.bingslanding..nc.html
03:35:34 INFO: http://tds.secoora.org/thredds/dodsC/fldep.stlucieinlet..nc.html
03:35:34 INFO: http://tds.secoora.org/thredds/dodsC/fldep.tolomatoriver..nc.html
03:35:34 INFO: http://tds.secoora.org/thredds/dodsC/lbhmc.2ndave.pier.nc.html
03:35:34 INFO: http://tds.secoora.org/thredds/dodsC/lbhmc.apachepier.pier.nc.html
03:35:34 INFO: http://tds.secoora.org/thredds/dodsC/lbhmc.cherrygrove.pier.nc.html
03:35:34 INFO: http://tds.secoora.org/thredds/dodsC/sccf.fortmyers.wq.nc.html
03:35:34 INFO: http://tds.secoora.org/thredds/dodsC/sccf.gulfofmexico.wq.nc.html
03:35:34 INFO: http://tds.secoora.org/thredds/dodsC/sccf.redfishpass.wq.nc.html
03:35:34 INFO: http://tds.secoora.org/thredds/dodsC/sccf.shellpoint.wq.nc.html
03:35:34 INFO: http://tds.secoora.org/thredds/dodsC/sccf.tarponbay.wq.nc.html
03:35:34 INFO: http://tds.secoora.org/thredds/dodsC/usf.c21.weatherpak.nc.html
03:35:34 INFO: http://tds.secoora.org/thredds/dodsC/usf.shp.ngwlms.nc.html
03:35:34 INFO: http://thredds.cdip.ucsd.edu/thredds/dodsC/cdip/archive/028p1/028p1_d16.nc.html
03:35:34 INFO: http://thredds.cdip.ucsd.edu/thredds/dodsC/cdip/archive/028p1/028p1_historic.nc.html
03:35:34 INFO: http://thredds.cdip.ucsd.edu/thredds/dodsC/cdip/archive/029p1/029p1_d19.nc.html
03:35:34 INFO: http://thredds.cdip.ucsd.edu/thredds/dodsC/cdip/archive/029p1/029p1_historic.nc.html
03:35:34 INFO: http://thredds.cdip.ucsd.edu/thredds/dodsC/cdip/archive/036p1/036p1_d40.nc.html
03:35:34 INFO: http://thredds.cdip.ucsd.edu/thredds/dodsC/cdip/archive/043p1/043p1_d17.nc.html
03:35:34 INFO: http://thredds.cdip.ucsd.edu/thredds/dodsC/cdip/archive/045p1/045p1_historic.nc.html
03:35:34 INFO: http://thredds.cdip.ucsd.edu/thredds/dodsC/cdip/archive/071p1/071p1_historic.nc.html
03:35:34 INFO: http://thredds.cdip.ucsd.edu/thredds/dodsC/cdip/archive/076p1/076p1_d27.nc.html
03:35:34 INFO: http://thredds.cdip.ucsd.edu/thredds/dodsC/cdip/archive/098p1/098p1_historic.nc.html
03:35:34 INFO: http://thredds.cdip.ucsd.edu/thredds/dodsC/cdip/archive/132p1/132p1_d11.nc.html
03:35:34 INFO: http://thredds.cdip.ucsd.edu/thredds/dodsC/cdip/archive/132p1/132p1_historic.nc.html
03:35:34 INFO: http://thredds.cdip.ucsd.edu/thredds/dodsC/cdip/archive/134p1/134p1_d09.nc.html
03:35:34 INFO: http://thredds.cdip.ucsd.edu/thredds/dodsC/cdip/archive/134p1/134p1_historic.nc.html
03:35:34 INFO: http://thredds.cdip.ucsd.edu/thredds/dodsC/cdip/archive/139p1/139p1_d08.nc.html
03:35:34 INFO: http://thredds.cdip.ucsd.edu/thredds/dodsC/cdip/archive/139p1/139p1_historic.nc.html
03:35:34 INFO: http://thredds.cdip.ucsd.edu/thredds/dodsC/cdip/archive/142p1/142p1_d14.nc.html
03:35:34 INFO: http://thredds.cdip.ucsd.edu/thredds/dodsC/cdip/archive/142p1/142p1_historic.nc.html
03:35:34 INFO: http://thredds.cdip.ucsd.edu/thredds/dodsC/cdip/archive/143p1/143p1_d11.nc.html
03:35:34 INFO: http://thredds.cdip.ucsd.edu/thredds/dodsC/cdip/archive/143p1/143p1_historic.nc.html
03:35:34 INFO: http://thredds.cdip.ucsd.edu/thredds/dodsC/cdip/archive/144p1/144p1_d07.nc.html
03:35:34 INFO: http://thredds.cdip.ucsd.edu/thredds/dodsC/cdip/archive/144p1/144p1_historic.nc.html
03:35:34 INFO: http://thredds.cdip.ucsd.edu/thredds/dodsC/cdip/archive/150p1/150p1_d07.nc.html
03:35:34 INFO: http://thredds.cdip.ucsd.edu/thredds/dodsC/cdip/archive/150p1/150p1_historic.nc.html
03:35:34 INFO: http://thredds.cdip.ucsd.edu/thredds/dodsC/cdip/archive/156p1/156p1_d07.nc.html
03:35:34 INFO: http://thredds.cdip.ucsd.edu/thredds/dodsC/cdip/archive/162p1/162p1_d04.nc.html
03:35:34 INFO: http://thredds.cdip.ucsd.edu/thredds/dodsC/cdip/archive/166p1/166p1_d02.nc.html
03:35:34 INFO: http://thredds.cdip.ucsd.edu/thredds/dodsC/cdip/archive/168p1/168p1_d05.nc.html
03:35:34 INFO: http://thredds.cdip.ucsd.edu/thredds/dodsC/cdip/archive/179p1/179p1_d04.nc.html
03:35:34 INFO: http://thredds.cdip.ucsd.edu/thredds/dodsC/cdip/archive/185p1/185p1_d02.nc.html
03:35:34 INFO: http://thredds.cdip.ucsd.edu/thredds/dodsC/cdip/archive/185p1/185p1_d03.nc.html
03:35:34 INFO: http://thredds.cdip.ucsd.edu/thredds/dodsC/cdip/archive/186p1/186p1_d03.nc.html
03:35:34 INFO: http://thredds.cdip.ucsd.edu/thredds/dodsC/cdip/archive/190p1/190p1_d02.nc.html
03:35:34 INFO: http://thredds.cdip.ucsd.edu/thredds/dodsC/cdip/archive/190p1/190p1_historic.nc.html
03:35:34 INFO: http://thredds.cdip.ucsd.edu/thredds/dodsC/cdip/archive/191p1/191p1_d12.nc.html
03:35:34 INFO: http://thredds.cdip.ucsd.edu/thredds/dodsC/cdip/archive/192p1/192p1_d02.nc.html
03:35:34 INFO: http://thredds.cdip.ucsd.edu/thredds/dodsC/cdip/archive/192p1/192p1_historic.nc.html
03:35:34 INFO: http://thredds.cdip.ucsd.edu/thredds/dodsC/cdip/archive/201p1/201p1_d02.nc.html
03:35:34 INFO: http://thredds.cdip.ucsd.edu/thredds/dodsC/cdip/archive/203p1/203p1_d01.nc.html
03:35:34 INFO: http://thredds.cdip.ucsd.edu/thredds/dodsC/cdip/archive/430p1/430p1_historic.nc.html
03:40:04 INFO: ************************* Filtered DAP *************************
03:40:04 INFO: http://crow.marine.usf.edu:8080/thredds/dodsC/FVCOM-Nowcast-Agg.nc.html
03:40:04 INFO: http://crow.marine.usf.edu:8080/thredds/dodsC/WFS_ROMS_NF_model/USF_Ocean_Circulation_Group_West_Florida_Shelf_Daily_ROMS_Nowcast_Forecast_Model_Data_best.ncd.html
03:40:04 INFO: http://geoport.whoi.edu/thredds/dodsC/coawst_4/use/fmrc/coawst_4_use_best.ncd.html
03:40:04 INFO: http://omgsrv1.meas.ncsu.edu:8080/thredds/dodsC/fmrc/sabgom/SABGOM_Forecast_Model_Run_Collection_best.ncd.html
03:40:04 INFO: http://oos.soest.hawaii.edu/thredds/dodsC/hioos/satellite/dhw.html
03:40:04 INFO: http://oos.soest.hawaii.edu/thredds/dodsC/pacioos/hycom/global.html
03:40:04 INFO: http://tds.marine.rutgers.edu/thredds/dodsC/roms/espresso/2013_da/his_Best/ESPRESSO_Real-Time_v2_History_Best_Available_best.ncd.html
03:40:04 WARNING: USEAST not in the NGDC csw
03:40:04 WARNING: USF_SWAN not in the NGDC csw
03:40:29 WARNING: Cannot get cube for: http://129.252.139.124/thredds/dodsC/usf.nfb.ngwlms.nc
Cannot find ['sea_water_temperature', 'sea_surface_temperature', 'sea_water_potential_temperature', 'equivalent_potential_temperature', 'sea_water_conservative_temperature', 'pseudo_equivalent_potential_temperature'] in http://129.252.139.124/thredds/dodsC/usf.nfb.ngwlms.nc.
03:40:37 WARNING: Cannot get cube for: http://129.252.139.124/thredds/dodsC/usf.tas.ngwlms.nc
Cannot find ['sea_water_temperature', 'sea_surface_temperature', 'sea_water_potential_temperature', 'equivalent_potential_temperature', 'sea_water_conservative_temperature', 'pseudo_equivalent_potential_temperature'] in http://129.252.139.124/thredds/dodsC/usf.tas.ngwlms.nc.
03:40:42 WARNING: Cannot get cube for: http://129.252.139.124/thredds/dodsC/usf.apk.ngwlms.nc
Cannot find ['sea_water_temperature', 'sea_surface_temperature', 'sea_water_potential_temperature', 'equivalent_potential_temperature', 'sea_water_conservative_temperature', 'pseudo_equivalent_potential_temperature'] in http://129.252.139.124/thredds/dodsC/usf.apk.ngwlms.nc.
03:40:49 WARNING: Cannot get cube for: http://129.252.139.124/thredds/dodsC/usf.c21.weatherpak.nc
Cannot find ['sea_water_temperature', 'sea_surface_temperature', 'sea_water_potential_temperature', 'equivalent_potential_temperature', 'sea_water_conservative_temperature', 'pseudo_equivalent_potential_temperature'] in http://129.252.139.124/thredds/dodsC/usf.c21.weatherpak.nc.
03:41:11 WARNING: Cannot get cube for: http://129.252.139.124/thredds/dodsC/usf.bcp.ngwlms.nc
Cannot find ['sea_water_temperature', 'sea_surface_temperature', 'sea_water_potential_temperature', 'equivalent_potential_temperature', 'sea_water_conservative_temperature', 'pseudo_equivalent_potential_temperature'] in http://129.252.139.124/thredds/dodsC/usf.bcp.ngwlms.nc.
03:41:21 WARNING: Cannot get cube for: http://129.252.139.124/thredds/dodsC/usf.fhp.ngwlms.nc
Cannot find ['sea_water_temperature', 'sea_surface_temperature', 'sea_water_potential_temperature', 'equivalent_potential_temperature', 'sea_water_conservative_temperature', 'pseudo_equivalent_potential_temperature'] in http://129.252.139.124/thredds/dodsC/usf.fhp.ngwlms.nc.
03:41:29 WARNING: Cannot get cube for: http://129.252.139.124/thredds/dodsC/usf.c10.mcat.nc
istart must be different from istop! Got istart 48233 and  istop 48233
03:41:51 WARNING: Cannot get cube for: http://129.252.139.124/thredds/dodsC/c10_salinity_water_temp.nc
Cannot find ['sea_water_temperature', 'sea_surface_temperature', 'sea_water_potential_temperature', 'equivalent_potential_temperature', 'sea_water_conservative_temperature', 'pseudo_equivalent_potential_temperature'] in http://129.252.139.124/thredds/dodsC/c10_salinity_water_temp.nc.
03:42:14 WARNING: Cannot get cube for: http://129.252.139.124/thredds/dodsC/QC_C10_Temp_full.nc
Cannot find ['sea_water_temperature', 'sea_surface_temperature', 'sea_water_potential_temperature', 'equivalent_potential_temperature', 'sea_water_conservative_temperature', 'pseudo_equivalent_potential_temperature'] in http://129.252.139.124/thredds/dodsC/QC_C10_Temp_full.nc.
03:42:27 WARNING: Cannot get cube for: http://129.252.139.124/thredds/dodsC/QC_C10_Sal_full.nc
Cannot find ['sea_water_temperature', 'sea_surface_temperature', 'sea_water_potential_temperature', 'equivalent_potential_temperature', 'sea_water_conservative_temperature', 'pseudo_equivalent_potential_temperature'] in http://129.252.139.124/thredds/dodsC/QC_C10_Sal_full.nc.
03:42:34 WARNING: Cannot get cube for: http://129.252.139.124/thredds/dodsC/usf.c12.mcat.nc
istart must be different from istop! Got istart 18711 and  istop 18711
03:42:42 WARNING: Cannot get cube for: http://129.252.139.124/thredds/dodsC/usf.c13.mcat.nc
istart must be different from istop! Got istart 18099 and  istop 18099
03:42:48 WARNING: Cannot get cube for: http://129.252.139.124/thredds/dodsC/usf.c10.mcat_2011.nc
istart must be different from istop! Got istart 26303 and  istop 26303
03:42:55 WARNING: Cannot get cube for: http://129.252.139.124/thredds/dodsC/usf.c12.mcat_2011.nc
istart must be different from istop! Got istart 26303 and  istop 26303
03:43:05 WARNING: Cannot get cube for: http://129.252.139.124/thredds/dodsC/usf.c13.mcat_2011.nc
istart must be different from istop! Got istart 26303 and  istop 26303
03:44:34 WARNING: Cannot get cube for: http://129.252.139.124/thredds/dodsC/cormp.ilm1.buoy.nc
istart must be different from istop! Got istart 1443 and  istop 1443
03:44:45 WARNING: Cannot get cube for: http://129.252.139.124/thredds/dodsC/cormp.lej3.buoy.nc
istart must be different from istop! Got istart 91490 and  istop 91490
03:45:55 WARNING: Cannot get cube for: http://129.252.139.124/thredds/dodsC/fldep.poncedeleonsouth..nc
Cannot find ['sea_water_temperature', 'sea_surface_temperature', 'sea_water_potential_temperature', 'equivalent_potential_temperature', 'sea_water_conservative_temperature', 'pseudo_equivalent_potential_temperature'] in http://129.252.139.124/thredds/dodsC/fldep.poncedeleonsouth..nc.
03:46:08 WARNING: Cannot get cube for: http://129.252.139.124/thredds/dodsC/fldep.redbaypoint..nc
Cannot find ['sea_water_temperature', 'sea_surface_temperature', 'sea_water_potential_temperature', 'equivalent_potential_temperature', 'sea_water_conservative_temperature', 'pseudo_equivalent_potential_temperature'] in http://129.252.139.124/thredds/dodsC/fldep.redbaypoint..nc.
03:46:35 WARNING: Cannot get cube for: http://129.252.139.124/thredds/dodsC/fldep.naplesbay..nc
Cannot find ['sea_water_temperature', 'sea_surface_temperature', 'sea_water_potential_temperature', 'equivalent_potential_temperature', 'sea_water_conservative_temperature', 'pseudo_equivalent_potential_temperature'] in http://129.252.139.124/thredds/dodsC/fldep.naplesbay..nc.
03:46:46 WARNING: Cannot get cube for: http://129.252.139.124/thredds/dodsC/fldep.gordonriverinlet..nc
Cannot find ['sea_water_temperature', 'sea_surface_temperature', 'sea_water_potential_temperature', 'equivalent_potential_temperature', 'sea_water_conservative_temperature', 'pseudo_equivalent_potential_temperature'] in http://129.252.139.124/thredds/dodsC/fldep.gordonriverinlet..nc.
03:46:55 WARNING: Cannot get cube for: http://129.252.139.124/thredds/dodsC/fldep.melbourne..nc
Cannot find ['sea_water_temperature', 'sea_surface_temperature', 'sea_water_potential_temperature', 'equivalent_potential_temperature', 'sea_water_conservative_temperature', 'pseudo_equivalent_potential_temperature'] in http://129.252.139.124/thredds/dodsC/fldep.melbourne..nc.
03:47:14 WARNING: Cannot get cube for: http://129.252.139.124/thredds/dodsC/fldep.binneydock..nc
Cannot find ['sea_water_temperature', 'sea_surface_temperature', 'sea_water_potential_temperature', 'equivalent_potential_temperature', 'sea_water_conservative_temperature', 'pseudo_equivalent_potential_temperature'] in http://129.252.139.124/thredds/dodsC/fldep.binneydock..nc.
03:47:32 WARNING: Cannot get cube for: http://129.252.139.124/thredds/dodsC/fldep.verobeach..nc
Cannot find ['sea_water_temperature', 'sea_surface_temperature', 'sea_water_potential_temperature', 'equivalent_potential_temperature', 'sea_water_conservative_temperature', 'pseudo_equivalent_potential_temperature'] in http://129.252.139.124/thredds/dodsC/fldep.verobeach..nc.
03:49:50 WARNING: Cannot get cube for: http://129.252.139.124/thredds/dodsC/enp.ppta1.met.nc
Cannot find ['sea_water_temperature', 'sea_surface_temperature', 'sea_water_potential_temperature', 'equivalent_potential_temperature', 'sea_water_conservative_temperature', 'pseudo_equivalent_potential_temperature'] in http://129.252.139.124/thredds/dodsC/enp.ppta1.met.nc.
03:51:31 INFO: ********************* Collector offerings **********************
03:51:31 INFO: NOAA.NOS.CO-OPS SOS: 1048 offerings
03:51:34 INFO: SOS URL request: http://opendap.co-ops.nos.noaa.gov/ioos-dif-sos/SOS?eventTime=2014-07-01T12%3A00%3A00Z&service=SOS&offering=urn%3Aioos%3Anetwork%3ANOAA.NOS.CO-OPS%3AMetActive&request=GetObservation&version=1.0.0&responseFormat=text%2Fcsv&featureOfInterest=BBOX%3A-87.4%2C24.25%2C-74.7%2C36.7&observedProperty=sea_water_temperature
03:56:06 INFO: ************************* Observations *************************
03:56:06 INFO: **** Downloading to file 2014-07-07/2014-07-07-OBS_DATA.nc *****
03:58:35 WARNING: /home/filipe/miniconda/envs/SECOORA/lib/python2.7/site-packages/iris/fileformats/netcdf.py:1783: UserWarning: NetCDF default saving behaviour currently assigns the outermost dimensions to unlimited. This behaviour is to be deprecated, in favour of no automatic assignment. To switch to the new behaviour, set iris.FUTURE.netcdf_no_unlimited to True.
  warnings.warn(msg)

03:58:36 INFO: ********************* SECOORA Observations *********************
03:58:36 INFO:  Downloading to file 2014-07-07/2014-07-07-SECOORA_OBS_DATA.nc *
03:58:36 INFO: **************************** Models ****************************
03:58:36 INFO: 
[Reading url 1/9]: http://crow.marine.usf.edu:8080/thredds/dodsC/FVCOM-Nowcast-Agg.nc
04:03:36 WARNING: Cannot get cube for: http://crow.marine.usf.edu:8080/thredds/dodsC/FVCOM-Nowcast-Agg.nc
Timed out!
04:03:36 INFO: 
[Reading url 2/9]: http://crow.marine.usf.edu:8080/thredds/dodsC/WFS_ROMS_NF_model/USF_Ocean_Circulation_Group_West_Florida_Shelf_Daily_ROMS_Nowcast_Forecast_Model_Data_best.ncd
04:03:52 INFO: 
[Reading url 3/9]: http://geoport.whoi.edu/thredds/dodsC/coawst_4/use/fmrc/coawst_4_use_best.ncd
04:04:33 INFO: 
[Reading url 4/9]: http://omgarch1.meas.ncsu.edu:8080/thredds/dodsC/fmrc/sabgom/SABGOM_Forecast_Model_Run_Collection_best.ncd
04:05:03 INFO: 
[Reading url 5/9]: http://oos.soest.hawaii.edu/thredds/dodsC/hioos/satellite/dhw
04:05:06 WARNING: [Not model data]: http://oos.soest.hawaii.edu/thredds/dodsC/hioos/satellite/dhw
04:05:06 INFO: 
[Reading url 6/9]: http://oos.soest.hawaii.edu/thredds/dodsC/pacioos/hycom/global
04:05:11 INFO: 
[Reading url 7/9]: http://tds.marine.rutgers.edu/thredds/dodsC/roms/espresso/2013_da/his_Best/ESPRESSO_Real-Time_v2_History_Best_Available_best.ncd
04:05:31 INFO: 
[Reading url 8/9]: http://omgsrv1.meas.ncsu.edu:8080/thredds/dodsC/fmrc/us_east/US_East_Forecast_Model_Run_Collection_best.ncd
04:05:53 WARNING: Cannot get cube for: http://omgsrv1.meas.ncsu.edu:8080/thredds/dodsC/fmrc/us_east/US_East_Forecast_Model_Run_Collection_best.ncd
istart must be different from istop! Got istart 0 and  istop 0
04:05:53 INFO: 
[Reading url 9/9]: http://crow.marine.usf.edu:8080/thredds/dodsC/WFS_SWAN_NF_model/USF_Ocean_Circulation_Group_West_Florida_Shelf_Daily_SWAN_Nowcast_Forecast_Wave_Model_Data_best.ncd
04:05:56 WARNING: Cannot get cube for: http://crow.marine.usf.edu:8080/thredds/dodsC/WFS_SWAN_NF_model/USF_Ocean_Circulation_Group_West_Florida_Shelf_Daily_SWAN_Nowcast_Forecast_Wave_Model_Data_best.ncd
Cannot find ['sea_water_temperature', 'sea_surface_temperature', 'sea_water_potential_temperature', 'equivalent_potential_temperature', 'sea_water_conservative_temperature', 'pseudo_equivalent_potential_temperature'] in http://crow.marine.usf.edu:8080/thredds/dodsC/WFS_SWAN_NF_model/USF_Ocean_Circulation_Group_West_Florida_Shelf_Daily_SWAN_Nowcast_Forecast_Wave_Model_Data_best.ncd.
04:05:56 INFO: **** Downloading to file 2014-07-07/2014-07-07-USF_ROMS.nc *****
04:05:56 INFO: [No Data] Duck, NC
04:05:56 INFO: [No Data] Oregon Inlet Marina, NC
04:05:56 INFO: [No Data] USCG Station Hatteras, NC
04:05:56 INFO: [No Data] Beaufort, NC
04:05:56 INFO: [No Data] Wilmington, NC
04:05:56 INFO: [No Data] Wrightsville Beach, NC
04:05:56 INFO: [No Data] Springmaid Pier, SC
04:05:56 INFO: [No Data] Charleston, SC
04:05:56 INFO: [No Data] Fort Pulaski, GA
04:05:56 INFO: [No Data] Fernandina Beach, FL
04:05:56 INFO: [No Data] Mayport (Bar Pilots Dock), FL
04:05:56 INFO: [No Data] Dames Point, FL
04:05:56 INFO: [No Data] Jacksonville University, FL
04:05:56 INFO: [No Data] I-295 Bridge, St Johns River, FL
04:05:56 INFO: [No Data] Red Bay Point, St Johns River, FL
04:05:56 INFO: [No Data] Racy Point, St Johns River, FL
04:05:56 INFO: [No Data] Trident Pier, FL
04:05:56 INFO: [No Data] Lake Worth Pier, FL
04:05:56 INFO: [No Data] Virginia Key, FL
04:05:56 INFO: [No Data] Vaca Key, FL
04:05:56 INFO: [No Data] Key West, FL
04:06:01 INFO: [Water  ] Naples, FL
04:06:08 INFO: [Water  ] Fort Myers, FL
04:06:20 INFO: [Water  ] Port Manatee, FL
04:06:20 INFO: [No Data] St Petersburg, FL
04:06:27 INFO: [Water  ] Old Port Tampa, FL
04:06:42 INFO: [Water  ] Apalachicola, FL
04:06:59 INFO: [Water  ] Panama City, FL
04:07:11 INFO: [Water  ] Panama City Beach, FL
04:07:11 INFO: [No Data] Pensacola, FL
04:07:17 INFO: [Water  ] Gulf of Mexico station
04:07:17 INFO: [No Data] Taylor River, FL
04:07:25 INFO: [Water  ] Redfish Pass station
04:07:25 INFO: [No Data] Little Rabbit Key, FL
04:07:34 INFO: [Water  ] Peterson Key, FL
04:07:34 INFO: [No Data] CORMP ILM2, Wrightsville Beach Nearshore, NC
04:07:34 INFO: [No Data] fau_lobo_1
04:07:34 INFO: [No Data] Cherry Grove Pier, N. Myrtle Beach, SC
04:07:41 INFO: [Water  ] Tarpon Bay station
04:07:48 INFO: [Water  ] Broad River, FL
04:08:03 INFO: [Water  ] Murray Key, FL
04:08:17 INFO: [Water  ] Blackwater Sound, FL
04:08:24 INFO: [Water  ] Butternut Key, FL
04:08:32 INFO: [Water  ] Shell Point station
04:08:32 INFO: [No Data] 2nd Ave North Pier, Myrtle Beach, SC
04:08:39 INFO: [Water  ] Little Blackwater, FL
04:08:39 INFO: [No Data] Trout Cove, FL
04:08:39 INFO: [No Data] White Water -West, FL
04:08:47 INFO: [Water  ] Cane Patch, FL
04:08:47 INFO: [No Data] Sebastian Inlet met station
04:09:09 INFO: [Water  ] Shell Point
04:09:09 INFO: [No Data] Bing's Landing station
04:09:09 INFO: [No Data] CAROCOOPS CAP2, Capers Island Nearshore, SC
04:09:16 INFO: [Water  ] Johnson Key, FL
04:09:22 INFO: [Water  ] Broad River Lower, FL
04:09:26 INFO: [Water  ] Clear Water Pass, FL 
04:09:26 INFO: [No Data] Little Madeira, FL
04:09:31 INFO: [Water  ] Highway Creek, FL
04:09:31 INFO: [No Data] Gunboat Island, FL
04:09:31 INFO: [No Data] CAROCOOPS FRP2, Fripp Nearshore, SC
04:09:39 INFO: [Water  ] Cannon Bay, FL
04:09:39 INFO: [No Data] Apache Pier, Myrtle Beach, SC
04:09:39 INFO: [No Data] Tolomato River station
04:09:39 INFO: [No Data] Whipray Basin, FL
04:09:39 INFO: [No Data] Garfield Bight, FL
04:09:46 INFO: [Water  ] Lane River, FL 
04:09:46 INFO: [No Data] St Lucie Inlet station
04:09:46 INFO: [No Data] Duck Key, FL
04:09:46 INFO: [No Data] CORMP ILM3, Wrightsville Beach Offshore, NC
04:09:46 INFO: [No Data] Fort Myers station
04:09:58 INFO: [Water  ] Willy Willy, FL
04:09:58 INFO: [No Data] CAROCOOPS SUN2, Sunset Nearshore, NC
04:10:11 INFO: [Water  ] Bob Allen, FL
04:11:43 INFO: Finished processing [USF_ROMS]: http://crow.marine.usf.edu:8080/thredds/dodsC/WFS_SWAN_NF_model/USF_Ocean_Circulation_Group_West_Florida_Shelf_Daily_SWAN_Nowcast_Forecast_Wave_Model_Data_best.ncd

04:11:43 INFO: * Downloading to file 2014-07-07/2014-07-07-SABGOM_ARCHIVE.nc **
04:12:00 INFO: [Water  ] Duck, NC
04:12:10 INFO: [Land   ] Oregon Inlet Marina, NC
04:12:18 INFO: [Water  ] USCG Station Hatteras, NC
04:12:27 INFO: [Land   ] Beaufort, NC
04:12:36 INFO: [Land   ] Wilmington, NC
04:12:45 INFO: [Water  ] Wrightsville Beach, NC
04:12:53 INFO: [Water  ] Springmaid Pier, SC
04:13:03 INFO: [Land   ] Charleston, SC
04:13:12 INFO: [Land   ] Fort Pulaski, GA
04:13:20 INFO: [Land   ] Fernandina Beach, FL
04:13:28 INFO: [Land   ] Mayport (Bar Pilots Dock), FL
04:13:39 INFO: [Land   ] Dames Point, FL
04:13:47 INFO: [Land   ] Jacksonville University, FL
04:13:58 INFO: [Land   ] I-295 Bridge, St Johns River, FL
04:14:08 INFO: [Land   ] Red Bay Point, St Johns River, FL
04:14:17 INFO: [Land   ] Racy Point, St Johns River, FL
04:14:35 INFO: [Land   ] Trident Pier, FL
04:14:57 INFO: [Land   ] Lake Worth Pier, FL
04:15:05 INFO: [Water  ] Virginia Key, FL
04:15:25 INFO: [Land   ] Vaca Key, FL
04:15:36 INFO: [Water  ] Key West, FL
04:15:45 INFO: [Land   ] Naples, FL
04:15:56 INFO: [Land   ] Fort Myers, FL
04:16:14 INFO: [Land   ] Port Manatee, FL
04:16:30 INFO: [Land   ] St Petersburg, FL
04:16:49 INFO: [Water  ] Old Port Tampa, FL
04:16:59 INFO: [Land   ] Apalachicola, FL
04:17:09 INFO: [Land   ] Panama City, FL
04:17:27 INFO: [Water  ] Panama City Beach, FL
04:17:37 INFO: [Land   ] Pensacola, FL
04:17:59 INFO: [Land   ] Gulf of Mexico station
04:18:08 INFO: [Land   ] Taylor River, FL
04:18:31 INFO: [Water  ] Redfish Pass station
04:18:45 INFO: [Water  ] Little Rabbit Key, FL
04:19:05 INFO: [Water  ] Peterson Key, FL
04:19:14 INFO: [Water  ] CORMP ILM2, Wrightsville Beach Nearshore, NC
04:19:24 INFO: [Land   ] fau_lobo_1
04:19:35 INFO: [Land   ] Cherry Grove Pier, N. Myrtle Beach, SC
04:19:45 INFO: [Water  ] Tarpon Bay station
04:19:57 INFO: [Land   ] Broad River, FL
04:20:15 INFO: [Water  ] Murray Key, FL
04:20:25 INFO: [Land   ] Blackwater Sound, FL
04:20:36 INFO: [Water  ] Butternut Key, FL
04:20:48 INFO: [Land   ] Shell Point station
04:21:08 INFO: [Land   ] 2nd Ave North Pier, Myrtle Beach, SC
04:21:19 INFO: [Land   ] Little Blackwater, FL
04:21:39 INFO: [Land   ] Trout Cove, FL
04:21:49 INFO: [Land   ] White Water -West, FL
04:21:57 INFO: [Land   ] Cane Patch, FL
04:22:16 INFO: [Water  ] Sebastian Inlet met station
04:22:27 INFO: [Land   ] Shell Point
04:22:37 INFO: [Land   ] Bing's Landing station
04:22:47 INFO: [Water  ] CAROCOOPS CAP2, Capers Island Nearshore, SC
04:22:57 INFO: [Water  ] Johnson Key, FL
04:23:06 INFO: [Land   ] Broad River Lower, FL
04:23:15 INFO: [Land   ] Clear Water Pass, FL 
04:23:38 INFO: [Water  ] Little Madeira, FL
04:23:47 INFO: [Land   ] Highway Creek, FL
04:23:57 INFO: [Land   ] Gunboat Island, FL
04:24:06 INFO: [Water  ] CAROCOOPS FRP2, Fripp Nearshore, SC
04:24:15 INFO: [Land   ] Cannon Bay, FL
04:24:26 INFO: [Land   ] Apache Pier, Myrtle Beach, SC
04:24:37 INFO: [Land   ] Tolomato River station
04:24:54 INFO: [Water  ] Whipray Basin, FL
04:25:03 INFO: [Land   ] Garfield Bight, FL
04:25:16 INFO: [Land   ] Lane River, FL 
04:25:35 INFO: [Water  ] St Lucie Inlet station
04:25:54 INFO: [Water  ] Duck Key, FL
04:26:14 INFO: [Water  ] CORMP ILM3, Wrightsville Beach Offshore, NC
04:26:22 INFO: [Land   ] Fort Myers station
04:26:33 INFO: [Land   ] Willy Willy, FL
04:26:50 INFO: [Water  ] CAROCOOPS SUN2, Sunset Nearshore, NC
04:27:09 INFO: [Water  ] Bob Allen, FL
04:29:09 INFO: Finished processing [SABGOM_ARCHIVE]: http://crow.marine.usf.edu:8080/thredds/dodsC/WFS_SWAN_NF_model/USF_Ocean_Circulation_Group_West_Florida_Shelf_Daily_SWAN_Nowcast_Forecast_Wave_Model_Data_best.ncd

04:29:09 INFO: **** Downloading to file 2014-07-07/2014-07-07-COAWST_4.nc *****
04:29:23 INFO: [Land   ] Duck, NC
04:29:46 INFO: [Water  ] Oregon Inlet Marina, NC
04:29:58 INFO: [Water  ] USCG Station Hatteras, NC
04:30:20 INFO: [Land   ] Beaufort, NC
04:30:30 INFO: [Land   ] Wilmington, NC
04:30:42 INFO: [Water  ] Wrightsville Beach, NC
04:31:05 INFO: [Water  ] Springmaid Pier, SC
04:31:21 INFO: [Land   ] Charleston, SC
04:31:34 INFO: [Land   ] Fort Pulaski, GA
04:31:45 INFO: [Land   ] Fernandina Beach, FL
04:31:57 INFO: [Land   ] Mayport (Bar Pilots Dock), FL
04:32:08 INFO: [Land   ] Dames Point, FL
04:32:20 INFO: [Land   ] Jacksonville University, FL
04:32:32 INFO: [Land   ] I-295 Bridge, St Johns River, FL
04:32:45 INFO: [Land   ] Red Bay Point, St Johns River, FL
04:32:58 INFO: [Land   ] Racy Point, St Johns River, FL
04:33:09 INFO: [Land   ] Trident Pier, FL
04:33:34 INFO: [Water  ] Lake Worth Pier, FL
04:33:47 INFO: [Land   ] Virginia Key, FL
04:33:59 INFO: [Land   ] Vaca Key, FL
04:34:21 INFO: [Water  ] Key West, FL
04:34:32 INFO: [Land   ] Naples, FL
04:34:45 INFO: [Land   ] Fort Myers, FL
04:34:55 INFO: [Land   ] Port Manatee, FL
04:35:06 INFO: [Land   ] St Petersburg, FL
04:35:30 INFO: [Water  ] Old Port Tampa, FL
04:35:42 INFO: [Water  ] Apalachicola, FL
04:35:55 INFO: [Water  ] Panama City, FL
04:36:18 INFO: [Land   ] Panama City Beach, FL
04:36:30 INFO: [Water  ] Pensacola, FL
04:36:52 INFO: [Water  ] Gulf of Mexico station
04:37:05 INFO: [Land   ] Taylor River, FL
04:37:29 INFO: [Water  ] Redfish Pass station
04:37:41 INFO: [Water  ] Little Rabbit Key, FL
04:37:53 INFO: [Water  ] Peterson Key, FL
04:38:16 INFO: [Water  ] CORMP ILM2, Wrightsville Beach Nearshore, NC
04:38:28 INFO: [Land   ] fau_lobo_1
04:38:40 INFO: [Land   ] Cherry Grove Pier, N. Myrtle Beach, SC
04:38:53 INFO: [Water  ] Tarpon Bay station
04:39:06 INFO: [Land   ] Broad River, FL
04:39:18 INFO: [Water  ] Murray Key, FL
04:39:32 INFO: [Land   ] Blackwater Sound, FL
04:39:57 INFO: [Water  ] Butternut Key, FL
04:40:21 INFO: [Land   ] Shell Point station
04:40:46 INFO: [Water  ] 2nd Ave North Pier, Myrtle Beach, SC
04:40:59 INFO: [Land   ] Little Blackwater, FL
04:41:11 INFO: [Land   ] Trout Cove, FL
04:41:23 INFO: [Water  ] White Water -West, FL
04:41:35 INFO: [Land   ] Cane Patch, FL
04:41:46 INFO: [Water  ] Sebastian Inlet met station
04:41:56 INFO: [Land   ] Shell Point
04:42:08 INFO: [Land   ] Bing's Landing station
04:42:32 INFO: [Water  ] CAROCOOPS CAP2, Capers Island Nearshore, SC
04:42:45 INFO: [Water  ] Johnson Key, FL
04:42:58 INFO: [Land   ] Broad River Lower, FL
04:43:10 INFO: [Water  ] Clear Water Pass, FL 
04:43:23 INFO: [Water  ] Little Madeira, FL
04:43:36 INFO: [Land   ] Highway Creek, FL
04:43:47 INFO: [Land   ] Gunboat Island, FL
04:44:00 INFO: [Water  ] CAROCOOPS FRP2, Fripp Nearshore, SC
04:44:12 INFO: [Land   ] Cannon Bay, FL
04:44:24 INFO: [Land   ] Apache Pier, Myrtle Beach, SC
04:44:36 INFO: [Land   ] Tolomato River station
04:45:01 INFO: [Water  ] Whipray Basin, FL
04:45:12 INFO: [Water  ] Garfield Bight, FL
04:45:24 INFO: [Land   ] Lane River, FL 
04:45:50 INFO: [Water  ] St Lucie Inlet station
04:46:02 INFO: [Water  ] Duck Key, FL
04:46:14 INFO: [Water  ] CORMP ILM3, Wrightsville Beach Offshore, NC
04:46:26 INFO: [Land   ] Fort Myers station
04:46:38 INFO: [Land   ] Willy Willy, FL
04:46:50 INFO: [Water  ] CAROCOOPS SUN2, Sunset Nearshore, NC
04:47:03 INFO: [Water  ] Bob Allen, FL
04:50:12 INFO: Finished processing [COAWST_4]: http://crow.marine.usf.edu:8080/thredds/dodsC/WFS_SWAN_NF_model/USF_Ocean_Circulation_Group_West_Florida_Shelf_Daily_SWAN_Nowcast_Forecast_Wave_Model_Data_best.ncd

04:50:12 INFO: **** Downloading to file 2014-07-07/2014-07-07-ESPRESSO.nc *****
04:50:29 INFO: [Land   ] Duck, NC
04:50:39 INFO: [Water  ] Oregon Inlet Marina, NC
04:50:52 INFO: [Land   ] USCG Station Hatteras, NC
04:51:04 INFO: [Water  ] Beaufort, NC
04:51:04 INFO: [No Data] Wilmington, NC
04:51:04 INFO: [No Data] Wrightsville Beach, NC
04:51:04 INFO: [No Data] Springmaid Pier, SC
04:51:04 INFO: [No Data] Charleston, SC
04:51:04 INFO: [No Data] Fort Pulaski, GA
04:51:04 INFO: [No Data] Fernandina Beach, FL
04:51:04 INFO: [No Data] Mayport (Bar Pilots Dock), FL
04:51:04 INFO: [No Data] Dames Point, FL
04:51:04 INFO: [No Data] Jacksonville University, FL
04:51:04 INFO: [No Data] I-295 Bridge, St Johns River, FL
04:51:04 INFO: [No Data] Red Bay Point, St Johns River, FL
04:51:04 INFO: [No Data] Racy Point, St Johns River, FL
04:51:04 INFO: [No Data] Trident Pier, FL
04:51:04 INFO: [No Data] Lake Worth Pier, FL
04:51:04 INFO: [No Data] Virginia Key, FL
04:51:04 INFO: [No Data] Vaca Key, FL
04:51:04 INFO: [No Data] Key West, FL
04:51:04 INFO: [No Data] Naples, FL
04:51:04 INFO: [No Data] Fort Myers, FL
04:51:04 INFO: [No Data] Port Manatee, FL
04:51:04 INFO: [No Data] St Petersburg, FL
04:51:04 INFO: [No Data] Old Port Tampa, FL
04:51:04 INFO: [No Data] Apalachicola, FL
04:51:04 INFO: [No Data] Panama City, FL
04:51:04 INFO: [No Data] Panama City Beach, FL
04:51:04 INFO: [No Data] Pensacola, FL
04:51:04 INFO: [No Data] Gulf of Mexico station
04:51:04 INFO: [No Data] Taylor River, FL
04:51:04 INFO: [No Data] Redfish Pass station
04:51:04 INFO: [No Data] Little Rabbit Key, FL
04:51:04 INFO: [No Data] Peterson Key, FL
04:51:04 INFO: [No Data] CORMP ILM2, Wrightsville Beach Nearshore, NC
04:51:04 INFO: [No Data] fau_lobo_1
04:51:04 INFO: [No Data] Cherry Grove Pier, N. Myrtle Beach, SC
04:51:04 INFO: [No Data] Tarpon Bay station
04:51:04 INFO: [No Data] Broad River, FL
04:51:04 INFO: [No Data] Murray Key, FL
04:51:04 INFO: [No Data] Blackwater Sound, FL
04:51:04 INFO: [No Data] Butternut Key, FL
04:51:04 INFO: [No Data] Shell Point station
04:51:04 INFO: [No Data] 2nd Ave North Pier, Myrtle Beach, SC
04:51:04 INFO: [No Data] Little Blackwater, FL
04:51:04 INFO: [No Data] Trout Cove, FL
04:51:04 INFO: [No Data] White Water -West, FL
04:51:04 INFO: [No Data] Cane Patch, FL
04:51:04 INFO: [No Data] Sebastian Inlet met station
04:51:04 INFO: [No Data] Shell Point
04:51:04 INFO: [No Data] Bing's Landing station
04:51:04 INFO: [No Data] CAROCOOPS CAP2, Capers Island Nearshore, SC
04:51:04 INFO: [No Data] Johnson Key, FL
04:51:04 INFO: [No Data] Broad River Lower, FL
04:51:04 INFO: [No Data] Clear Water Pass, FL 
04:51:04 INFO: [No Data] Little Madeira, FL
04:51:04 INFO: [No Data] Highway Creek, FL
04:51:04 INFO: [No Data] Gunboat Island, FL
04:51:04 INFO: [No Data] CAROCOOPS FRP2, Fripp Nearshore, SC
04:51:04 INFO: [No Data] Cannon Bay, FL
04:51:04 INFO: [No Data] Apache Pier, Myrtle Beach, SC
04:51:04 INFO: [No Data] Tolomato River station
04:51:04 INFO: [No Data] Whipray Basin, FL
04:51:04 INFO: [No Data] Garfield Bight, FL
04:51:04 INFO: [No Data] Lane River, FL 
04:51:04 INFO: [No Data] St Lucie Inlet station
04:51:04 INFO: [No Data] Duck Key, FL
04:51:04 INFO: [No Data] CORMP ILM3, Wrightsville Beach Offshore, NC
04:51:04 INFO: [No Data] Fort Myers station
04:51:04 INFO: [No Data] Willy Willy, FL
04:51:04 INFO: [No Data] CAROCOOPS SUN2, Sunset Nearshore, NC
04:51:04 INFO: [No Data] Bob Allen, FL
04:51:12 INFO: Finished processing [ESPRESSO]: http://crow.marine.usf.edu:8080/thredds/dodsC/WFS_SWAN_NF_model/USF_Ocean_Circulation_Group_West_Florida_Shelf_Daily_SWAN_Nowcast_Forecast_Wave_Model_Data_best.ncd

04:51:12 INFO: ****** Downloading to file 2014-07-07/2014-07-07-HYCOM.nc ******
04:51:17 INFO: [Land   ] Duck, NC
04:51:23 INFO: [Water  ] Oregon Inlet Marina, NC
04:51:28 INFO: [Land   ] USCG Station Hatteras, NC
04:51:33 INFO: [Land   ] Beaufort, NC
04:51:38 INFO: [Land   ] Wilmington, NC
04:51:43 INFO: [Water  ] Wrightsville Beach, NC
04:51:43 INFO: [No Data] Springmaid Pier, SC
04:51:48 INFO: [Land   ] Charleston, SC
04:51:56 INFO: [Land   ] Fort Pulaski, GA
04:52:00 INFO: [Land   ] Fernandina Beach, FL
04:52:05 INFO: [Land   ] Mayport (Bar Pilots Dock), FL
04:52:10 INFO: [Land   ] Dames Point, FL
04:52:15 INFO: [Land   ] Jacksonville University, FL
04:52:19 INFO: [Land   ] I-295 Bridge, St Johns River, FL
04:52:24 INFO: [Land   ] Red Bay Point, St Johns River, FL
04:52:24 INFO: [No Data] Racy Point, St Johns River, FL
04:52:29 INFO: [Land   ] Trident Pier, FL
04:52:34 INFO: [Water  ] Lake Worth Pier, FL
04:52:38 INFO: [Land   ] Virginia Key, FL
04:52:43 INFO: [Land   ] Vaca Key, FL
04:52:47 INFO: [Land   ] Key West, FL
04:52:47 INFO: [No Data] Naples, FL
04:52:51 INFO: [Land   ] Fort Myers, FL
04:52:56 INFO: [Land   ] Port Manatee, FL
04:53:00 INFO: [Land   ] St Petersburg, FL
04:53:05 INFO: [Land   ] Old Port Tampa, FL
04:53:09 INFO: [Land   ] Apalachicola, FL
04:53:14 INFO: [Land   ] Panama City, FL
04:53:14 INFO: [No Data] Panama City Beach, FL
04:53:18 INFO: [Land   ] Pensacola, FL
04:53:23 INFO: [Land   ] Gulf of Mexico station
04:53:28 INFO: [Land   ] Taylor River, FL
04:53:32 INFO: [Land   ] Redfish Pass station
04:53:37 INFO: [Land   ] Little Rabbit Key, FL
04:53:42 INFO: [Land   ] Peterson Key, FL
04:53:42 INFO: [No Data] CORMP ILM2, Wrightsville Beach Nearshore, NC
04:53:46 INFO: [Land   ] fau_lobo_1
04:53:51 INFO: [Land   ] Cherry Grove Pier, N. Myrtle Beach, SC
04:53:55 INFO: [Land   ] Tarpon Bay station
04:53:55 INFO: [No Data] Broad River, FL
04:54:04 INFO: [Land   ] Murray Key, FL
04:54:04 INFO: [No Data] Blackwater Sound, FL
04:54:11 INFO: [Land   ] Butternut Key, FL
04:54:15 INFO: [Land   ] Shell Point station
04:54:19 INFO: [Land   ] 2nd Ave North Pier, Myrtle Beach, SC
04:54:24 INFO: [Land   ] Little Blackwater, FL
04:54:28 INFO: [Land   ] Trout Cove, FL
04:54:33 INFO: [Land   ] White Water -West, FL
04:54:38 INFO: [Land   ] Cane Patch, FL
04:54:41 INFO: [Land   ] Sebastian Inlet met station
04:54:46 INFO: [Land   ] Shell Point
04:54:51 INFO: [Land   ] Bing's Landing station
04:54:55 INFO: [Water  ] CAROCOOPS CAP2, Capers Island Nearshore, SC
04:55:00 INFO: [Land   ] Johnson Key, FL
04:55:05 INFO: [Land   ] Broad River Lower, FL
04:55:09 INFO: [Land   ] Clear Water Pass, FL 
04:55:17 INFO: [Land   ] Little Madeira, FL
04:55:17 INFO: [No Data] Highway Creek, FL
04:55:22 INFO: [Land   ] Gunboat Island, FL
04:55:32 INFO: [Water  ] CAROCOOPS FRP2, Fripp Nearshore, SC
04:55:37 INFO: [Land   ] Cannon Bay, FL
04:55:41 INFO: [Land   ] Apache Pier, Myrtle Beach, SC
04:55:47 INFO: [Land   ] Tolomato River station
04:55:53 INFO: [Land   ] Whipray Basin, FL
04:55:58 INFO: [Land   ] Garfield Bight, FL
04:56:03 INFO: [Land   ] Lane River, FL 
04:56:08 INFO: [Land   ] St Lucie Inlet station
04:56:12 INFO: [Land   ] Duck Key, FL
04:56:16 INFO: [Water  ] CORMP ILM3, Wrightsville Beach Offshore, NC
04:56:16 INFO: [No Data] Fort Myers station
04:56:22 INFO: [Land   ] Willy Willy, FL
04:56:27 INFO: [Water  ] CAROCOOPS SUN2, Sunset Nearshore, NC
04:56:27 INFO: [No Data] Bob Allen, FL
04:56:27 INFO: Finished processing [HYCOM]: http://crow.marine.usf.edu:8080/thredds/dodsC/WFS_SWAN_NF_model/USF_Ocean_Circulation_Group_West_Florida_Shelf_Daily_SWAN_Nowcast_Forecast_Wave_Model_Data_best.ncd

04:56:27 INFO: 81.21 minutes
04:56:27 INFO: EOF
