09:20:40 INFO: ************Saving data inside directory 2014-07-07*************
09:20:40 INFO: *********************** Run information ************************
09:20:40 INFO: Run date: 2015-08-01 12:20:40
09:20:40 INFO: Download start: 2014-06-30 12:00:00
09:20:40 INFO: Download stop: 2014-07-07 12:00:00
09:20:40 INFO: Bounding box: -87.40, 24.25,-74.70, 36.70
09:20:40 INFO: *********************** Software version ***********************
09:20:40 INFO: Iris version: 1.8.1
09:20:40 INFO: owslib version: 0.9.0
09:20:40 INFO: pyoos version: 0.6.2
09:20:48 INFO: ********************* Catalog information **********************
09:20:48 INFO: URL: http://www.ngdc.noaa.gov/geoportal/csw
09:20:48 INFO: CSW version: 2.0.2
09:20:48 INFO: Number of datasets available: 100
09:20:48 INFO: ***************************** CSW ******************************
09:20:48 INFO: USF FVCOM - Nowcast Aggregation
09:20:48 INFO: ROMS/TOMS 3.0 - New Floria Shelf Application
09:20:48 INFO: ROMS/TOMS 3.0 - South-Atlantic Bight and Gulf of Mexico
09:20:48 INFO: COAWST Forecast System : USGS : US East Coast and Gulf of Mexico (Experimental)
09:20:48 INFO: Directional wave and sea surface temperature measurements collected in situ by Datawell Mark 3 directional buoy located near MONTEREY CANYON OUTER, CA from 2013/07/11 17:00:00 to 2014/07/01 20:59:59.
09:20:48 INFO: Directional wave and sea surface temperature measurements collected in situ by Datawell Mark 3 directional buoy located near MONTEREY BAY WEST, CA from 2013/06/19 18:00:00 to 2014/07/01 14:59:59.
09:20:48 INFO: Directional wave and sea surface temperature measurements collected in situ by Datawell Mark 3 directional buoy located near MONTEREY BAY WEST, CA from 2014/07/01 19:00:00 to 2014/10/04 23:59:59.
09:20:48 INFO: Directional wave and sea surface temperature measurements collected in situ by Datawell Mark 3 directional buoy located near SAN FRANCISCO BAR, CA from 2013/06/19 22:00:00 to 2014/07/24 14:59:59.
09:20:48 INFO: Directional wave and sea surface temperature measurements collected in situ by Datawell Mark 3 directional buoy located near POINT REYES, CA from 2013/10/16 21:00:00 to 2014/09/05 11:59:59.
09:20:48 INFO: Directional wave and sea surface temperature measurements collected in situ by Datawell Mark 3 directional buoy located near HUMBOLDT BAY NORTH SPIT, CA from 2013/08/26 19:00:00 to 2014/07/24 03:59:59.
09:20:48 INFO: Directional wave and sea surface temperature measurements collected in situ by Datawell Mark 3 directional buoy located near UMPQUA OFFSHORE, OR from 2014/03/14 18:00:00 to 2015/05/21 16:59:59.
09:20:48 INFO: Directional wave and sea surface temperature measurements collected in situ by Datawell Mark 3 directional buoy located near DIABLO CANYON, CA from 2013/08/28 23:00:00 to 2014/10/29 16:59:59.
09:20:48 INFO: Directional wave and sea surface temperature measurements collected in situ by Datawell Mark 3 directional buoy located near CLATSOP SPIT, OR from 2013/07/18 20:00:00 to 2015/01/12 18:59:59.
09:20:48 INFO: Directional wave and sea surface temperature measurements collected in situ by Datawell Mark 3 directional buoy located near ASTORIA CANYON, OR from 2014/01/16 20:00:00 to 2014/09/29 22:59:59.
09:20:48 INFO: Directional wave and sea surface temperature measurements collected in situ by Datawell Mark 3 directional buoy located near GRAYS HARBOR, WA from 2013/10/13 19:00:00 to 2015/01/28 15:59:59.
09:20:48 INFO: Directional wave and sea surface temperature measurements collected in situ by Datawell Waverider buoys located near SAN FRANCISCO BAR, CA from 2007/07/25 to 2014/07/24.
09:20:48 INFO: Directional wave and sea surface temperature measurements collected in situ by Datawell Mark 3 directional buoy located near SANTA MONICA BAY, CA from 2013/12/18 21:00:00 to 2015/02/18 18:59:59.
09:20:48 INFO: Directional wave and sea surface temperature measurements collected in situ by Datawell Mark 3 directional buoy located near SANTA CRUZ BASIN, CA from 2013/07/09 15:00:00 to 2014/07/14 16:59:59.
09:20:48 INFO: Directional wave and sea surface temperature measurements collected in situ by Datawell Mark 3 directional buoy located near OCEAN STATION PAPA from 2012/10/04 21:00:00 to 2015/01/01 00:59:59.
09:20:48 INFO: Directional wave and sea surface temperature measurements collected in situ by Datawell Mark 3 directional buoy located near CAMP PENDLETON NEARSHORE, CA from 2014/04/24 22:00:00 to 2014/06/06 16:59:59.
09:20:48 INFO: Directional wave and sea surface temperature measurements collected in situ by Datawell Mark 3 directional buoy located near CAMP PENDLETON NEARSHORE, CA from 2014/06/16 21:00:00 to 2015/01/23 12:59:59.
09:20:48 INFO: Directional wave and sea surface temperature measurements collected in situ by Datawell Mark 3 directional buoy located near SAN NICOLAS ISLAND, CA from 2013/04/19 17:00:00 to 2014/06/08 21:59:59.
09:20:48 INFO: Directional wave and sea surface temperature measurements collected in situ by Datawell Mark 3 directional buoy located near TORREY PINES OUTER, CA from 2014/06/10 21:00:00 to 2014/06/12 15:59:59.
09:20:48 INFO: Directional wave and sea surface temperature measurements collected in situ by Datawell Mark 3 directional buoy located near SCRIPPS NEARSHORE, CA from 2013/07/12 20:00:00 to 2015/01/07 17:59:59.
09:20:48 INFO: Directional wave and sea surface temperature measurements collected in situ by Datawell Mark 3 directional buoy located near MISSION BAY OFFSHORE, CA from 2014/04/28 21:00:00 to 2014/06/24 09:59:59.
09:20:48 INFO: Directional wave and sea surface temperature measurements collected in situ by Datawell Waverider buoys located near OCEANSIDE OFFSHORE, CA from 1997/05/19 to 2015/03/04.
09:20:48 INFO: Directional wave and sea surface temperature measurements collected in situ by Datawell Mark 3 directional buoy located near POINT LOMA SOUTH, CA from 2013/08/12 20:00:00 to 2014/09/10 07:59:59.
09:20:48 INFO: Directional wave and sea surface temperature measurements collected in situ by Datawell Waverider buoys located near MOKAPU POINT, HI from 2000/08/09 to 2014/09/10.
09:20:48 INFO: Directional wave and sea surface temperature measurements collected in situ by Datawell Waverider buoys located near TORREY PINES OUTER, CA from 2001/01/30 to 2014/06/06.
09:20:48 INFO: ROMS ESPRESSO Real-Time Operational IS4DVAR Forecast System Version 2 (NEW) 2013-present FMRC History (Best)
09:20:48 INFO: Directional wave and sea surface temperature measurements collected in situ by Datawell Waverider buoys located near SANTA MONICA BAY, CA from 2000/03/16 to 2015/02/18.
09:20:48 INFO: Directional wave and sea surface temperature measurements collected in situ by Datawell Waverider buoys located near SAN NICOLAS ISLAND, CA from 1991/09/10 to 2014/06/08.
09:20:48 INFO: Directional wave and sea surface temperature measurements collected in situ by Datawell Waverider buoys located near UMPQUA OFFSHORE, OR from 2006/07/12 to 2015/05/21.
09:20:48 INFO: Directional wave and sea surface temperature measurements collected in situ by Datawell Mark 3 directional buoy located near FERNANDINA BEACH, FL from 2013/12/17 18:00:00 to 2015/01/29 16:59:59.
09:20:48 INFO: NDBC Standard Meteorological Buoy Data
09:20:48 INFO: Directional wave and sea surface temperature measurements collected in situ by Datawell Waverider buoys located near POINT REYES, CA from 1996/12/06 to 2015/05/29.
09:20:48 INFO: Directional wave and sea surface temperature measurements collected in situ by Datawell Waverider buoys located near HARVEST, CA from 1991/10/22 to 2015/07/09.
09:20:48 INFO: HYbrid Coordinate Ocean Model (HYCOM): Global
09:20:48 INFO: National Data Buoy Center SOS
09:20:48 INFO: G1SST, 1km blended SST
09:20:48 INFO: NOAA Coral Reef Watch Operational Twice-Weekly Near-Real-Time Global 50km Satellite Coral Bleaching Monitoring Products
09:20:48 INFO: Directional wave and sea surface temperature measurements collected in situ by Datawell Mark 3 directional buoy located near ST. PETERSBURG OFFSHORE, FL from 2013/12/03 19:00:00 to 2015/02/24 15:59:59.
09:20:48 INFO: Directional wave and sea surface temperature measurements collected in situ by Datawell Mark 3 directional buoy located near MASONBORO INLET, ILM2, NC from 2014/03/14 16:00:00 to 2015/01/06 13:59:59.where the water depth is approximately
09:20:48 INFO: Directional wave and sea surface temperature measurements collected in situ by Datawell Mark 3 directional buoy located near CAPE CANAVERAL NEARSHORE, FL from 2014/05/28 20:00:00 to 2015/06/05 12:59:59.
09:20:48 INFO: Directional wave and sea surface temperature measurements collected in situ by Datawell Mark 3 directional buoy located near FORT PIERCE, FL from 2013/12/05 17:00:00 to 2015/03/19 13:59:59.
09:20:48 INFO: Directional wave and sea surface temperature measurements collected in situ by Datawell Waverider buoys located near DUCK FRF 26m, NC from 2008/05/22 to 2015/05/06.
09:20:48 INFO: Directional wave and sea surface temperature measurements collected in situ by Datawell Mark 3 directional buoy located near CAPE CHARLES, VA from 2013/09/11 18:00:00 to 2015/02/18 11:59:59.
09:20:48 INFO: Directional wave and sea surface temperature measurements collected in situ by Datawell Waverider buoys located near CAPE CANAVERAL NEARSHORE, FL from 2006/09/07 to 2015/06/05.
09:20:48 INFO: Directional wave and sea surface temperature measurements collected in situ by Datawell Mark 3 directional buoy located near OREGON INLET, NC from 2013/07/17 17:00:00 to 2015/02/01 16:59:59.
09:20:48 INFO: Directional wave and sea surface temperature measurements collected in situ by Datawell Waverider buoys located near FERNANDINA BEACH, FL from 2006/02/09 to 2015/01/29.
09:20:48 INFO: Directional wave and sea surface temperature measurements collected in situ by Datawell Waverider buoys located near MASONBORO INLET, ILM2, NC from 2008/05/07 to 2015/01/06.
09:20:48 INFO: Directional wave and sea surface temperature measurements collected in situ by Datawell Waverider buoys located near ST. PETERSBURG OFFSHORE, FL from 2007/07/10 to 2015/02/24.
09:20:48 INFO: Directional wave and sea surface temperature measurements collected in situ by Datawell Waverider buoys located near OREGON INLET, NC from 2012/04/08 to 2015/02/01.
09:20:48 INFO: Directional wave and sea surface temperature measurements collected in situ by Datawell Waverider buoys located near FORT PIERCE, FL from 2006/09/29 to 2015/03/19.
09:20:48 INFO: Directional wave and sea surface temperature measurements collected in situ by Datawell Waverider buoys located near NEW RIVER INLET, NC from 2012/04/14 to 2014/07/11.
09:20:48 INFO: Directional wave and sea surface temperature measurements collected in situ by Datawell Mark 3 directional buoy located near NEW RIVER INLET, NC from 2014/03/09 19:00:00 to 2014/07/11 23:59:59.
09:20:48 INFO: lbhmc.apachepier.pier
09:20:48 INFO: lbhmc.cherrygrove.pier
09:20:48 INFO: sccf.fortmyers.wq
09:20:48 INFO: sccf.gulfofmexico.wq
09:20:48 INFO: sccf.redfishpass.wq
09:20:48 INFO: sccf.shellpoint.wq
09:20:48 INFO: sccf.tarponbay.wq
09:20:48 INFO: usf.c21.weatherpak
09:20:48 INFO: usf.shp.ngwlms
09:20:48 INFO: enp.bdvf1.met
09:20:48 INFO: enp.bnkf1.met
09:20:48 INFO: enp.bobf1.met
09:20:48 INFO: enp.bwsf1.met
09:20:48 INFO: enp.canf1.met
09:20:48 INFO: enp.cnbf1.met
09:20:48 INFO: enp.cwaf1.met
09:20:48 INFO: enp.dkkf1.met
09:20:48 INFO: enp.gbif1.met
09:20:48 INFO: enp.gbtf1.met
09:20:48 INFO: enp.hcef1.met
09:20:48 INFO: enp.jkyf1.met
09:20:48 INFO: enp.lbrf1.met
09:20:48 INFO: enp.lbsf1.met
09:20:48 INFO: enp.lmdf1.met
09:20:48 INFO: enp.lrif1.met
09:20:48 INFO: enp.lrkf1.met
09:20:48 INFO: enp.mukf1.met
09:20:48 INFO: enp.pkyf1.met
09:20:48 INFO: enp.tcvf1.met
09:20:48 INFO: enp.trrf1.met
09:20:48 INFO: enp.wiwf1.met
09:20:48 INFO: enp.wrbf1.met
09:20:48 INFO: enp.wwef1.met
09:20:48 INFO: fau.lobo.1
09:20:48 INFO: fldep.bingslanding.
09:20:48 INFO: fldep.stlucieinlet.
09:20:48 INFO: fldep.tolomatoriver.
09:20:48 INFO: carocoops.cap2.buoy
09:20:48 INFO: carocoops.cap2.buoy
09:20:48 INFO: carocoops.frp2.buoy
09:20:48 INFO: carocoops.frp2.buoy
09:20:48 INFO: carocoops.sun2.buoy
09:20:48 INFO: usf.c10.mcat
09:20:48 INFO: lbhmc.2ndave.pier
09:20:48 INFO: ***************************** DAP ******************************
09:20:48 INFO: http://crow.marine.usf.edu:8080/thredds/dodsC/FVCOM-Nowcast-Agg.nc.html
09:20:48 INFO: http://crow.marine.usf.edu:8080/thredds/dodsC/WFS_ROMS_NF_model/USF_Ocean_Circulation_Group_West_Florida_Shelf_Daily_ROMS_Nowcast_Forecast_Model_Data_best.ncd.html
09:20:48 INFO: http://geoport.whoi.edu/thredds/dodsC/coawst_4/use/fmrc/coawst_4_use_best.ncd.html
09:20:48 INFO: http://omgsrv1.meas.ncsu.edu:8080/thredds/dodsC/fmrc/sabgom/SABGOM_Forecast_Model_Run_Collection_best.ncd.html
09:20:48 INFO: http://oos.soest.hawaii.edu/thredds/dodsC/hioos/satellite/dhw.html
09:20:48 INFO: http://oos.soest.hawaii.edu/thredds/dodsC/pacioos/hycom/global.html
09:20:48 INFO: http://tds.marine.rutgers.edu/thredds/dodsC/roms/espresso/2013_da/his_Best/ESPRESSO_Real-Time_v2_History_Best_Available_best.ncd.html
09:20:48 INFO: http://tds.secoora.org/thredds/dodsC/carocoops.cap2.buoy.nc.html
09:20:48 INFO: http://tds.secoora.org/thredds/dodsC/carocoops.cap2.buoy_archive.nc.html
09:20:48 INFO: http://tds.secoora.org/thredds/dodsC/carocoops.frp2.buoy.nc.html
09:20:48 INFO: http://tds.secoora.org/thredds/dodsC/carocoops.frp2.buoy_archive.nc.html
09:20:48 INFO: http://tds.secoora.org/thredds/dodsC/carocoops.sun2.buoy_archive.nc.html
09:20:48 INFO: http://tds.secoora.org/thredds/dodsC/enp.bdvf1.met.nc.html
09:20:48 INFO: http://tds.secoora.org/thredds/dodsC/enp.bnkf1.met.nc.html
09:20:48 INFO: http://tds.secoora.org/thredds/dodsC/enp.bobf1.met.nc.html
09:20:48 INFO: http://tds.secoora.org/thredds/dodsC/enp.bwsf1.met.nc.html
09:20:48 INFO: http://tds.secoora.org/thredds/dodsC/enp.canf1.met.nc.html
09:20:48 INFO: http://tds.secoora.org/thredds/dodsC/enp.cnbf1.met.nc.html
09:20:48 INFO: http://tds.secoora.org/thredds/dodsC/enp.cwaf1.met.nc.html
09:20:48 INFO: http://tds.secoora.org/thredds/dodsC/enp.dkkf1.met.nc.html
09:20:48 INFO: http://tds.secoora.org/thredds/dodsC/enp.gbif1.met.nc.html
09:20:48 INFO: http://tds.secoora.org/thredds/dodsC/enp.gbtf1.met.nc.html
09:20:48 INFO: http://tds.secoora.org/thredds/dodsC/enp.hcef1.met.nc.html
09:20:48 INFO: http://tds.secoora.org/thredds/dodsC/enp.jkyf1.met.nc.html
09:20:48 INFO: http://tds.secoora.org/thredds/dodsC/enp.lbrf1.met.nc.html
09:20:48 INFO: http://tds.secoora.org/thredds/dodsC/enp.lbsf1.met.nc.html
09:20:48 INFO: http://tds.secoora.org/thredds/dodsC/enp.lmdf1.met.nc.html
09:20:48 INFO: http://tds.secoora.org/thredds/dodsC/enp.lrif1.met.nc.html
09:20:48 INFO: http://tds.secoora.org/thredds/dodsC/enp.lrkf1.met.nc.html
09:20:48 INFO: http://tds.secoora.org/thredds/dodsC/enp.mukf1.met.nc.html
09:20:48 INFO: http://tds.secoora.org/thredds/dodsC/enp.pkyf1.met.nc.html
09:20:48 INFO: http://tds.secoora.org/thredds/dodsC/enp.tcvf1.met.nc.html
09:20:48 INFO: http://tds.secoora.org/thredds/dodsC/enp.trrf1.met.nc.html
09:20:48 INFO: http://tds.secoora.org/thredds/dodsC/enp.wiwf1.met.nc.html
09:20:48 INFO: http://tds.secoora.org/thredds/dodsC/enp.wrbf1.met.nc.html
09:20:48 INFO: http://tds.secoora.org/thredds/dodsC/enp.wwef1.met.nc.html
09:20:48 INFO: http://tds.secoora.org/thredds/dodsC/fau.lobo.1.nc.html
09:20:48 INFO: http://tds.secoora.org/thredds/dodsC/fldep.bingslanding..nc.html
09:20:48 INFO: http://tds.secoora.org/thredds/dodsC/fldep.stlucieinlet..nc.html
09:20:48 INFO: http://tds.secoora.org/thredds/dodsC/fldep.tolomatoriver..nc.html
09:20:48 INFO: http://tds.secoora.org/thredds/dodsC/lbhmc.2ndave.pier.nc.html
09:20:48 INFO: http://tds.secoora.org/thredds/dodsC/lbhmc.apachepier.pier.nc.html
09:20:48 INFO: http://tds.secoora.org/thredds/dodsC/lbhmc.cherrygrove.pier.nc.html
09:20:48 INFO: http://tds.secoora.org/thredds/dodsC/sccf.fortmyers.wq.nc.html
09:20:48 INFO: http://tds.secoora.org/thredds/dodsC/sccf.gulfofmexico.wq.nc.html
09:20:48 INFO: http://tds.secoora.org/thredds/dodsC/sccf.redfishpass.wq.nc.html
09:20:48 INFO: http://tds.secoora.org/thredds/dodsC/sccf.shellpoint.wq.nc.html
09:20:48 INFO: http://tds.secoora.org/thredds/dodsC/sccf.tarponbay.wq.nc.html
09:20:48 INFO: http://tds.secoora.org/thredds/dodsC/usf.c10.mcat.nc.html
09:20:48 INFO: http://tds.secoora.org/thredds/dodsC/usf.c21.weatherpak.nc.html
09:20:48 INFO: http://tds.secoora.org/thredds/dodsC/usf.shp.ngwlms.nc.html
09:20:48 INFO: http://thredds.cdip.ucsd.edu/thredds/dodsC/cdip/archive/028p1/028p1_d16.nc.html
09:20:48 INFO: http://thredds.cdip.ucsd.edu/thredds/dodsC/cdip/archive/028p1/028p1_historic.nc.html
09:20:48 INFO: http://thredds.cdip.ucsd.edu/thredds/dodsC/cdip/archive/029p1/029p1_d19.nc.html
09:20:48 INFO: http://thredds.cdip.ucsd.edu/thredds/dodsC/cdip/archive/029p1/029p1_historic.nc.html
09:20:48 INFO: http://thredds.cdip.ucsd.edu/thredds/dodsC/cdip/archive/036p1/036p1_d40.nc.html
09:20:48 INFO: http://thredds.cdip.ucsd.edu/thredds/dodsC/cdip/archive/043p1/043p1_d16.nc.html
09:20:48 INFO: http://thredds.cdip.ucsd.edu/thredds/dodsC/cdip/archive/043p1/043p1_d17.nc.html
09:20:48 INFO: http://thredds.cdip.ucsd.edu/thredds/dodsC/cdip/archive/045p1/045p1_historic.nc.html
09:20:48 INFO: http://thredds.cdip.ucsd.edu/thredds/dodsC/cdip/archive/067p1/067p1_d22.nc.html
09:20:48 INFO: http://thredds.cdip.ucsd.edu/thredds/dodsC/cdip/archive/067p1/067p1_historic.nc.html
09:20:48 INFO: http://thredds.cdip.ucsd.edu/thredds/dodsC/cdip/archive/071p1/071p1_historic.nc.html
09:20:48 INFO: http://thredds.cdip.ucsd.edu/thredds/dodsC/cdip/archive/076p1/076p1_d27.nc.html
09:20:48 INFO: http://thredds.cdip.ucsd.edu/thredds/dodsC/cdip/archive/093p1/093p1_d40.nc.html
09:20:48 INFO: http://thredds.cdip.ucsd.edu/thredds/dodsC/cdip/archive/098p1/098p1_historic.nc.html
09:20:48 INFO: http://thredds.cdip.ucsd.edu/thredds/dodsC/cdip/archive/100p1/100p1_d13.nc.html
09:20:48 INFO: http://thredds.cdip.ucsd.edu/thredds/dodsC/cdip/archive/100p1/100p1_historic.nc.html
09:20:48 INFO: http://thredds.cdip.ucsd.edu/thredds/dodsC/cdip/archive/132p1/132p1_d11.nc.html
09:20:48 INFO: http://thredds.cdip.ucsd.edu/thredds/dodsC/cdip/archive/132p1/132p1_historic.nc.html
09:20:48 INFO: http://thredds.cdip.ucsd.edu/thredds/dodsC/cdip/archive/134p1/134p1_d09.nc.html
09:20:48 INFO: http://thredds.cdip.ucsd.edu/thredds/dodsC/cdip/archive/134p1/134p1_historic.nc.html
09:20:48 INFO: http://thredds.cdip.ucsd.edu/thredds/dodsC/cdip/archive/139p1/139p1_d08.nc.html
09:20:48 INFO: http://thredds.cdip.ucsd.edu/thredds/dodsC/cdip/archive/139p1/139p1_historic.nc.html
09:20:48 INFO: http://thredds.cdip.ucsd.edu/thredds/dodsC/cdip/archive/142p1/142p1_d14.nc.html
09:20:48 INFO: http://thredds.cdip.ucsd.edu/thredds/dodsC/cdip/archive/142p1/142p1_historic.nc.html
09:20:48 INFO: http://thredds.cdip.ucsd.edu/thredds/dodsC/cdip/archive/143p1/143p1_d11.nc.html
09:20:48 INFO: http://thredds.cdip.ucsd.edu/thredds/dodsC/cdip/archive/143p1/143p1_historic.nc.html
09:20:48 INFO: http://thredds.cdip.ucsd.edu/thredds/dodsC/cdip/archive/144p1/144p1_d07.nc.html
09:20:48 INFO: http://thredds.cdip.ucsd.edu/thredds/dodsC/cdip/archive/144p1/144p1_historic.nc.html
09:20:48 INFO: http://thredds.cdip.ucsd.edu/thredds/dodsC/cdip/archive/150p1/150p1_d07.nc.html
09:20:48 INFO: http://thredds.cdip.ucsd.edu/thredds/dodsC/cdip/archive/150p1/150p1_historic.nc.html
09:20:48 INFO: http://thredds.cdip.ucsd.edu/thredds/dodsC/cdip/archive/156p1/156p1_d07.nc.html
09:20:48 INFO: http://thredds.cdip.ucsd.edu/thredds/dodsC/cdip/archive/162p1/162p1_d04.nc.html
09:20:48 INFO: http://thredds.cdip.ucsd.edu/thredds/dodsC/cdip/archive/166p1/166p1_d02.nc.html
09:20:48 INFO: http://thredds.cdip.ucsd.edu/thredds/dodsC/cdip/archive/168p1/168p1_d05.nc.html
09:20:48 INFO: http://thredds.cdip.ucsd.edu/thredds/dodsC/cdip/archive/179p1/179p1_d04.nc.html
09:20:48 INFO: http://thredds.cdip.ucsd.edu/thredds/dodsC/cdip/archive/185p1/185p1_d02.nc.html
09:20:48 INFO: http://thredds.cdip.ucsd.edu/thredds/dodsC/cdip/archive/185p1/185p1_d03.nc.html
09:20:48 INFO: http://thredds.cdip.ucsd.edu/thredds/dodsC/cdip/archive/186p1/186p1_d03.nc.html
09:20:48 INFO: http://thredds.cdip.ucsd.edu/thredds/dodsC/cdip/archive/190p1/190p1_d02.nc.html
09:20:48 INFO: http://thredds.cdip.ucsd.edu/thredds/dodsC/cdip/archive/190p1/190p1_historic.nc.html
09:20:48 INFO: http://thredds.cdip.ucsd.edu/thredds/dodsC/cdip/archive/191p1/191p1_d12.nc.html
09:20:48 INFO: http://thredds.cdip.ucsd.edu/thredds/dodsC/cdip/archive/192p1/192p1_d02.nc.html
09:20:48 INFO: http://thredds.cdip.ucsd.edu/thredds/dodsC/cdip/archive/192p1/192p1_historic.nc.html
09:20:48 INFO: http://thredds.cdip.ucsd.edu/thredds/dodsC/cdip/archive/201p1/201p1_d02.nc.html
09:20:48 INFO: http://thredds.cdip.ucsd.edu/thredds/dodsC/cdip/archive/203p1/203p1_d01.nc.html
09:20:48 INFO: http://thredds.cdip.ucsd.edu/thredds/dodsC/cdip/archive/430p1/430p1_historic.nc.html
09:20:48 INFO: ***************************** SOS ******************************
09:20:48 INFO: http://sdf.ndbc.noaa.gov/sos/server.php?service=SOS&request=GetCapabilities&acceptVersions=1.0.0
09:20:48 INFO: http://tds.secoora.org/thredds/sos/carocoops.cap2.buoy.nc?service=SOS&version=1.0.0&request=GetCapabilities
09:20:48 INFO: http://tds.secoora.org/thredds/sos/carocoops.cap2.buoy_archive.nc?service=SOS&version=1.0.0&request=GetCapabilities
09:20:48 INFO: http://tds.secoora.org/thredds/sos/carocoops.frp2.buoy.nc?service=SOS&version=1.0.0&request=GetCapabilities
09:20:48 INFO: http://tds.secoora.org/thredds/sos/carocoops.frp2.buoy_archive.nc?service=SOS&version=1.0.0&request=GetCapabilities
09:20:48 INFO: http://tds.secoora.org/thredds/sos/carocoops.sun2.buoy_archive.nc?service=SOS&version=1.0.0&request=GetCapabilities
09:20:48 INFO: http://tds.secoora.org/thredds/sos/enp.bdvf1.met.nc?service=SOS&version=1.0.0&request=GetCapabilities
09:20:48 INFO: http://tds.secoora.org/thredds/sos/enp.bnkf1.met.nc?service=SOS&version=1.0.0&request=GetCapabilities
09:20:48 INFO: http://tds.secoora.org/thredds/sos/enp.bobf1.met.nc?service=SOS&version=1.0.0&request=GetCapabilities
09:20:48 INFO: http://tds.secoora.org/thredds/sos/enp.bwsf1.met.nc?service=SOS&version=1.0.0&request=GetCapabilities
09:20:48 INFO: http://tds.secoora.org/thredds/sos/enp.canf1.met.nc?service=SOS&version=1.0.0&request=GetCapabilities
09:20:48 INFO: http://tds.secoora.org/thredds/sos/enp.cnbf1.met.nc?service=SOS&version=1.0.0&request=GetCapabilities
09:20:48 INFO: http://tds.secoora.org/thredds/sos/enp.cwaf1.met.nc?service=SOS&version=1.0.0&request=GetCapabilities
09:20:48 INFO: http://tds.secoora.org/thredds/sos/enp.dkkf1.met.nc?service=SOS&version=1.0.0&request=GetCapabilities
09:20:48 INFO: http://tds.secoora.org/thredds/sos/enp.gbif1.met.nc?service=SOS&version=1.0.0&request=GetCapabilities
09:20:48 INFO: http://tds.secoora.org/thredds/sos/enp.gbtf1.met.nc?service=SOS&version=1.0.0&request=GetCapabilities
09:20:48 INFO: http://tds.secoora.org/thredds/sos/enp.hcef1.met.nc?service=SOS&version=1.0.0&request=GetCapabilities
09:20:48 INFO: http://tds.secoora.org/thredds/sos/enp.jkyf1.met.nc?service=SOS&version=1.0.0&request=GetCapabilities
09:20:48 INFO: http://tds.secoora.org/thredds/sos/enp.lbrf1.met.nc?service=SOS&version=1.0.0&request=GetCapabilities
09:20:48 INFO: http://tds.secoora.org/thredds/sos/enp.lbsf1.met.nc?service=SOS&version=1.0.0&request=GetCapabilities
09:20:48 INFO: http://tds.secoora.org/thredds/sos/enp.lmdf1.met.nc?service=SOS&version=1.0.0&request=GetCapabilities
09:20:48 INFO: http://tds.secoora.org/thredds/sos/enp.lrif1.met.nc?service=SOS&version=1.0.0&request=GetCapabilities
09:20:48 INFO: http://tds.secoora.org/thredds/sos/enp.lrkf1.met.nc?service=SOS&version=1.0.0&request=GetCapabilities
09:20:48 INFO: http://tds.secoora.org/thredds/sos/enp.mukf1.met.nc?service=SOS&version=1.0.0&request=GetCapabilities
09:20:48 INFO: http://tds.secoora.org/thredds/sos/enp.pkyf1.met.nc?service=SOS&version=1.0.0&request=GetCapabilities
09:20:48 INFO: http://tds.secoora.org/thredds/sos/enp.tcvf1.met.nc?service=SOS&version=1.0.0&request=GetCapabilities
09:20:48 INFO: http://tds.secoora.org/thredds/sos/enp.trrf1.met.nc?service=SOS&version=1.0.0&request=GetCapabilities
09:20:48 INFO: http://tds.secoora.org/thredds/sos/enp.wiwf1.met.nc?service=SOS&version=1.0.0&request=GetCapabilities
09:20:48 INFO: http://tds.secoora.org/thredds/sos/enp.wrbf1.met.nc?service=SOS&version=1.0.0&request=GetCapabilities
09:20:48 INFO: http://tds.secoora.org/thredds/sos/enp.wwef1.met.nc?service=SOS&version=1.0.0&request=GetCapabilities
09:20:48 INFO: http://tds.secoora.org/thredds/sos/fau.lobo.1.nc?service=SOS&version=1.0.0&request=GetCapabilities
09:20:48 INFO: http://tds.secoora.org/thredds/sos/fldep.bingslanding..nc?service=SOS&version=1.0.0&request=GetCapabilities
09:20:48 INFO: http://tds.secoora.org/thredds/sos/fldep.stlucieinlet..nc?service=SOS&version=1.0.0&request=GetCapabilities
09:20:48 INFO: http://tds.secoora.org/thredds/sos/fldep.tolomatoriver..nc?service=SOS&version=1.0.0&request=GetCapabilities
09:20:48 INFO: http://tds.secoora.org/thredds/sos/lbhmc.2ndave.pier.nc?service=SOS&version=1.0.0&request=GetCapabilities
09:20:48 INFO: http://tds.secoora.org/thredds/sos/lbhmc.apachepier.pier.nc?service=SOS&version=1.0.0&request=GetCapabilities
09:20:48 INFO: http://tds.secoora.org/thredds/sos/lbhmc.cherrygrove.pier.nc?service=SOS&version=1.0.0&request=GetCapabilities
09:20:48 INFO: http://tds.secoora.org/thredds/sos/sccf.fortmyers.wq.nc?service=SOS&version=1.0.0&request=GetCapabilities
09:20:48 INFO: http://tds.secoora.org/thredds/sos/sccf.gulfofmexico.wq.nc?service=SOS&version=1.0.0&request=GetCapabilities
09:20:48 INFO: http://tds.secoora.org/thredds/sos/sccf.redfishpass.wq.nc?service=SOS&version=1.0.0&request=GetCapabilities
09:20:48 INFO: http://tds.secoora.org/thredds/sos/sccf.shellpoint.wq.nc?service=SOS&version=1.0.0&request=GetCapabilities
09:20:48 INFO: http://tds.secoora.org/thredds/sos/sccf.tarponbay.wq.nc?service=SOS&version=1.0.0&request=GetCapabilities
09:20:48 INFO: http://tds.secoora.org/thredds/sos/usf.c10.mcat.nc?service=SOS&version=1.0.0&request=GetCapabilities
09:20:48 INFO: http://tds.secoora.org/thredds/sos/usf.c21.weatherpak.nc?service=SOS&version=1.0.0&request=GetCapabilities
09:20:48 INFO: http://tds.secoora.org/thredds/sos/usf.shp.ngwlms.nc?service=SOS&version=1.0.0&request=GetCapabilities
09:20:48 INFO: http://thredds.cdip.ucsd.edu/thredds/sos/cdip/archive/028p1/028p1_d16.nc?service=SOS&version=1.0.0&request=GetCapabilities
09:20:48 INFO: http://thredds.cdip.ucsd.edu/thredds/sos/cdip/archive/028p1/028p1_historic.nc?service=SOS&version=1.0.0&request=GetCapabilities
09:20:48 INFO: http://thredds.cdip.ucsd.edu/thredds/sos/cdip/archive/029p1/029p1_d19.nc?service=SOS&version=1.0.0&request=GetCapabilities
09:20:48 INFO: http://thredds.cdip.ucsd.edu/thredds/sos/cdip/archive/029p1/029p1_historic.nc?service=SOS&version=1.0.0&request=GetCapabilities
09:20:48 INFO: http://thredds.cdip.ucsd.edu/thredds/sos/cdip/archive/036p1/036p1_d40.nc?service=SOS&version=1.0.0&request=GetCapabilities
09:20:48 INFO: http://thredds.cdip.ucsd.edu/thredds/sos/cdip/archive/043p1/043p1_d16.nc?service=SOS&version=1.0.0&request=GetCapabilities
09:20:48 INFO: http://thredds.cdip.ucsd.edu/thredds/sos/cdip/archive/043p1/043p1_d17.nc?service=SOS&version=1.0.0&request=GetCapabilities
09:20:48 INFO: http://thredds.cdip.ucsd.edu/thredds/sos/cdip/archive/045p1/045p1_historic.nc?service=SOS&version=1.0.0&request=GetCapabilities
09:20:48 INFO: http://thredds.cdip.ucsd.edu/thredds/sos/cdip/archive/067p1/067p1_d22.nc?service=SOS&version=1.0.0&request=GetCapabilities
09:20:48 INFO: http://thredds.cdip.ucsd.edu/thredds/sos/cdip/archive/067p1/067p1_historic.nc?service=SOS&version=1.0.0&request=GetCapabilities
09:20:48 INFO: http://thredds.cdip.ucsd.edu/thredds/sos/cdip/archive/071p1/071p1_historic.nc?service=SOS&version=1.0.0&request=GetCapabilities
09:20:48 INFO: http://thredds.cdip.ucsd.edu/thredds/sos/cdip/archive/076p1/076p1_d27.nc?service=SOS&version=1.0.0&request=GetCapabilities
09:20:48 INFO: http://thredds.cdip.ucsd.edu/thredds/sos/cdip/archive/093p1/093p1_d40.nc?service=SOS&version=1.0.0&request=GetCapabilities
09:20:48 INFO: http://thredds.cdip.ucsd.edu/thredds/sos/cdip/archive/098p1/098p1_historic.nc?service=SOS&version=1.0.0&request=GetCapabilities
09:20:48 INFO: http://thredds.cdip.ucsd.edu/thredds/sos/cdip/archive/100p1/100p1_d13.nc?service=SOS&version=1.0.0&request=GetCapabilities
09:20:48 INFO: http://thredds.cdip.ucsd.edu/thredds/sos/cdip/archive/100p1/100p1_historic.nc?service=SOS&version=1.0.0&request=GetCapabilities
09:20:48 INFO: http://thredds.cdip.ucsd.edu/thredds/sos/cdip/archive/132p1/132p1_d11.nc?service=SOS&version=1.0.0&request=GetCapabilities
09:20:48 INFO: http://thredds.cdip.ucsd.edu/thredds/sos/cdip/archive/132p1/132p1_historic.nc?service=SOS&version=1.0.0&request=GetCapabilities
09:20:48 INFO: http://thredds.cdip.ucsd.edu/thredds/sos/cdip/archive/134p1/134p1_d09.nc?service=SOS&version=1.0.0&request=GetCapabilities
09:20:48 INFO: http://thredds.cdip.ucsd.edu/thredds/sos/cdip/archive/134p1/134p1_historic.nc?service=SOS&version=1.0.0&request=GetCapabilities
09:20:48 INFO: http://thredds.cdip.ucsd.edu/thredds/sos/cdip/archive/139p1/139p1_d08.nc?service=SOS&version=1.0.0&request=GetCapabilities
09:20:48 INFO: http://thredds.cdip.ucsd.edu/thredds/sos/cdip/archive/139p1/139p1_historic.nc?service=SOS&version=1.0.0&request=GetCapabilities
09:20:48 INFO: http://thredds.cdip.ucsd.edu/thredds/sos/cdip/archive/142p1/142p1_d14.nc?service=SOS&version=1.0.0&request=GetCapabilities
09:20:48 INFO: http://thredds.cdip.ucsd.edu/thredds/sos/cdip/archive/142p1/142p1_historic.nc?service=SOS&version=1.0.0&request=GetCapabilities
09:20:48 INFO: http://thredds.cdip.ucsd.edu/thredds/sos/cdip/archive/143p1/143p1_d11.nc?service=SOS&version=1.0.0&request=GetCapabilities
09:20:48 INFO: http://thredds.cdip.ucsd.edu/thredds/sos/cdip/archive/143p1/143p1_historic.nc?service=SOS&version=1.0.0&request=GetCapabilities
09:20:48 INFO: http://thredds.cdip.ucsd.edu/thredds/sos/cdip/archive/144p1/144p1_d07.nc?service=SOS&version=1.0.0&request=GetCapabilities
09:20:48 INFO: http://thredds.cdip.ucsd.edu/thredds/sos/cdip/archive/144p1/144p1_historic.nc?service=SOS&version=1.0.0&request=GetCapabilities
09:20:48 INFO: http://thredds.cdip.ucsd.edu/thredds/sos/cdip/archive/150p1/150p1_d07.nc?service=SOS&version=1.0.0&request=GetCapabilities
09:20:48 INFO: http://thredds.cdip.ucsd.edu/thredds/sos/cdip/archive/150p1/150p1_historic.nc?service=SOS&version=1.0.0&request=GetCapabilities
09:20:48 INFO: http://thredds.cdip.ucsd.edu/thredds/sos/cdip/archive/156p1/156p1_d07.nc?service=SOS&version=1.0.0&request=GetCapabilities
09:20:48 INFO: http://thredds.cdip.ucsd.edu/thredds/sos/cdip/archive/162p1/162p1_d04.nc?service=SOS&version=1.0.0&request=GetCapabilities
09:20:48 INFO: http://thredds.cdip.ucsd.edu/thredds/sos/cdip/archive/166p1/166p1_d02.nc?service=SOS&version=1.0.0&request=GetCapabilities
09:20:48 INFO: http://thredds.cdip.ucsd.edu/thredds/sos/cdip/archive/168p1/168p1_d05.nc?service=SOS&version=1.0.0&request=GetCapabilities
09:20:48 INFO: http://thredds.cdip.ucsd.edu/thredds/sos/cdip/archive/179p1/179p1_d04.nc?service=SOS&version=1.0.0&request=GetCapabilities
09:20:48 INFO: http://thredds.cdip.ucsd.edu/thredds/sos/cdip/archive/185p1/185p1_d02.nc?service=SOS&version=1.0.0&request=GetCapabilities
09:20:48 INFO: http://thredds.cdip.ucsd.edu/thredds/sos/cdip/archive/185p1/185p1_d03.nc?service=SOS&version=1.0.0&request=GetCapabilities
09:20:48 INFO: http://thredds.cdip.ucsd.edu/thredds/sos/cdip/archive/186p1/186p1_d03.nc?service=SOS&version=1.0.0&request=GetCapabilities
09:20:48 INFO: http://thredds.cdip.ucsd.edu/thredds/sos/cdip/archive/190p1/190p1_d02.nc?service=SOS&version=1.0.0&request=GetCapabilities
09:20:48 INFO: http://thredds.cdip.ucsd.edu/thredds/sos/cdip/archive/190p1/190p1_historic.nc?service=SOS&version=1.0.0&request=GetCapabilities
09:20:48 INFO: http://thredds.cdip.ucsd.edu/thredds/sos/cdip/archive/191p1/191p1_d12.nc?service=SOS&version=1.0.0&request=GetCapabilities
09:20:48 INFO: http://thredds.cdip.ucsd.edu/thredds/sos/cdip/archive/192p1/192p1_d02.nc?service=SOS&version=1.0.0&request=GetCapabilities
09:20:48 INFO: http://thredds.cdip.ucsd.edu/thredds/sos/cdip/archive/192p1/192p1_historic.nc?service=SOS&version=1.0.0&request=GetCapabilities
09:20:48 INFO: http://thredds.cdip.ucsd.edu/thredds/sos/cdip/archive/201p1/201p1_d02.nc?service=SOS&version=1.0.0&request=GetCapabilities
09:20:48 INFO: http://thredds.cdip.ucsd.edu/thredds/sos/cdip/archive/203p1/203p1_d01.nc?service=SOS&version=1.0.0&request=GetCapabilities
09:20:48 INFO: http://thredds.cdip.ucsd.edu/thredds/sos/cdip/archive/430p1/430p1_historic.nc?service=SOS&version=1.0.0&request=GetCapabilities
09:20:49 WARNING: USEAST not in the NGDC csw
09:20:49 WARNING: USF_SWAN not in the NGDC csw
09:21:03 WARNING: Cannot get cube for: http://129.252.139.124/thredds/dodsC/usf.nfb.ngwlms.nc
Cannot find ['sea_water_temperature', 'sea_surface_temperature', 'sea_water_potential_temperature', 'equivalent_potential_temperature', 'sea_water_conservative_temperature', 'pseudo_equivalent_potential_temperature'] in http://129.252.139.124/thredds/dodsC/usf.nfb.ngwlms.nc.
09:21:09 WARNING: Cannot get cube for: http://129.252.139.124/thredds/dodsC/usf.tas.ngwlms.nc
Cannot find ['sea_water_temperature', 'sea_surface_temperature', 'sea_water_potential_temperature', 'equivalent_potential_temperature', 'sea_water_conservative_temperature', 'pseudo_equivalent_potential_temperature'] in http://129.252.139.124/thredds/dodsC/usf.tas.ngwlms.nc.
09:21:14 WARNING: Cannot get cube for: http://129.252.139.124/thredds/dodsC/usf.apk.ngwlms.nc
Cannot find ['sea_water_temperature', 'sea_surface_temperature', 'sea_water_potential_temperature', 'equivalent_potential_temperature', 'sea_water_conservative_temperature', 'pseudo_equivalent_potential_temperature'] in http://129.252.139.124/thredds/dodsC/usf.apk.ngwlms.nc.
09:21:18 WARNING: Cannot get cube for: http://129.252.139.124/thredds/dodsC/usf.c21.weatherpak.nc
Cannot find ['sea_water_temperature', 'sea_surface_temperature', 'sea_water_potential_temperature', 'equivalent_potential_temperature', 'sea_water_conservative_temperature', 'pseudo_equivalent_potential_temperature'] in http://129.252.139.124/thredds/dodsC/usf.c21.weatherpak.nc.
09:21:29 WARNING: Cannot get cube for: http://129.252.139.124/thredds/dodsC/usf.bcp.ngwlms.nc
Cannot find ['sea_water_temperature', 'sea_surface_temperature', 'sea_water_potential_temperature', 'equivalent_potential_temperature', 'sea_water_conservative_temperature', 'pseudo_equivalent_potential_temperature'] in http://129.252.139.124/thredds/dodsC/usf.bcp.ngwlms.nc.
09:21:34 WARNING: Cannot get cube for: http://129.252.139.124/thredds/dodsC/usf.fhp.ngwlms.nc
Cannot find ['sea_water_temperature', 'sea_surface_temperature', 'sea_water_potential_temperature', 'equivalent_potential_temperature', 'sea_water_conservative_temperature', 'pseudo_equivalent_potential_temperature'] in http://129.252.139.124/thredds/dodsC/usf.fhp.ngwlms.nc.
09:21:39 WARNING: Cannot get cube for: http://129.252.139.124/thredds/dodsC/usf.c10.mcat.nc
istart must be different from istop! Got istart 48233 and  istop 48233
09:21:46 WARNING: Cannot get cube for: http://129.252.139.124/thredds/dodsC/c10_salinity_water_temp.nc
Cannot find ['sea_water_temperature', 'sea_surface_temperature', 'sea_water_potential_temperature', 'equivalent_potential_temperature', 'sea_water_conservative_temperature', 'pseudo_equivalent_potential_temperature'] in http://129.252.139.124/thredds/dodsC/c10_salinity_water_temp.nc.
09:21:53 WARNING: Cannot get cube for: http://129.252.139.124/thredds/dodsC/QC_C10_Temp_full.nc
Cannot find ['sea_water_temperature', 'sea_surface_temperature', 'sea_water_potential_temperature', 'equivalent_potential_temperature', 'sea_water_conservative_temperature', 'pseudo_equivalent_potential_temperature'] in http://129.252.139.124/thredds/dodsC/QC_C10_Temp_full.nc.
09:22:02 WARNING: Cannot get cube for: http://129.252.139.124/thredds/dodsC/QC_C10_Sal_full.nc
Cannot find ['sea_water_temperature', 'sea_surface_temperature', 'sea_water_potential_temperature', 'equivalent_potential_temperature', 'sea_water_conservative_temperature', 'pseudo_equivalent_potential_temperature'] in http://129.252.139.124/thredds/dodsC/QC_C10_Sal_full.nc.
09:22:06 WARNING: Cannot get cube for: http://129.252.139.124/thredds/dodsC/usf.c12.mcat.nc
istart must be different from istop! Got istart 18711 and  istop 18711
09:22:09 WARNING: Cannot get cube for: http://129.252.139.124/thredds/dodsC/usf.c13.mcat.nc
istart must be different from istop! Got istart 18099 and  istop 18099
09:22:13 WARNING: Cannot get cube for: http://129.252.139.124/thredds/dodsC/usf.c10.mcat_2011.nc
istart must be different from istop! Got istart 26303 and  istop 26303
09:22:16 WARNING: Cannot get cube for: http://129.252.139.124/thredds/dodsC/usf.c12.mcat_2011.nc
istart must be different from istop! Got istart 26303 and  istop 26303
09:22:20 WARNING: Cannot get cube for: http://129.252.139.124/thredds/dodsC/usf.c13.mcat_2011.nc
istart must be different from istop! Got istart 26303 and  istop 26303
09:22:55 WARNING: Cannot get cube for: http://129.252.139.124/thredds/dodsC/cormp.ilm1.buoy.nc
istart must be different from istop! Got istart 1443 and  istop 1443
09:23:03 WARNING: Cannot get cube for: http://129.252.139.124/thredds/dodsC/cormp.lej3.buoy.nc
istart must be different from istop! Got istart 91490 and  istop 91490
09:23:59 WARNING: Cannot get cube for: http://129.252.139.124/thredds/dodsC/fldep.poncedeleonsouth..nc
Cannot find ['sea_water_temperature', 'sea_surface_temperature', 'sea_water_potential_temperature', 'equivalent_potential_temperature', 'sea_water_conservative_temperature', 'pseudo_equivalent_potential_temperature'] in http://129.252.139.124/thredds/dodsC/fldep.poncedeleonsouth..nc.
09:24:16 WARNING: Cannot get cube for: http://129.252.139.124/thredds/dodsC/fldep.redbaypoint..nc
Cannot find ['sea_water_temperature', 'sea_surface_temperature', 'sea_water_potential_temperature', 'equivalent_potential_temperature', 'sea_water_conservative_temperature', 'pseudo_equivalent_potential_temperature'] in http://129.252.139.124/thredds/dodsC/fldep.redbaypoint..nc.
09:24:35 WARNING: Cannot get cube for: http://129.252.139.124/thredds/dodsC/fldep.naplesbay..nc
Cannot find ['sea_water_temperature', 'sea_surface_temperature', 'sea_water_potential_temperature', 'equivalent_potential_temperature', 'sea_water_conservative_temperature', 'pseudo_equivalent_potential_temperature'] in http://129.252.139.124/thredds/dodsC/fldep.naplesbay..nc.
09:24:43 WARNING: Cannot get cube for: http://129.252.139.124/thredds/dodsC/fldep.gordonriverinlet..nc
Cannot find ['sea_water_temperature', 'sea_surface_temperature', 'sea_water_potential_temperature', 'equivalent_potential_temperature', 'sea_water_conservative_temperature', 'pseudo_equivalent_potential_temperature'] in http://129.252.139.124/thredds/dodsC/fldep.gordonriverinlet..nc.
09:24:51 WARNING: Cannot get cube for: http://129.252.139.124/thredds/dodsC/fldep.melbourne..nc
Cannot find ['sea_water_temperature', 'sea_surface_temperature', 'sea_water_potential_temperature', 'equivalent_potential_temperature', 'sea_water_conservative_temperature', 'pseudo_equivalent_potential_temperature'] in http://129.252.139.124/thredds/dodsC/fldep.melbourne..nc.
09:25:06 WARNING: Cannot get cube for: http://129.252.139.124/thredds/dodsC/fldep.binneydock..nc
Cannot find ['sea_water_temperature', 'sea_surface_temperature', 'sea_water_potential_temperature', 'equivalent_potential_temperature', 'sea_water_conservative_temperature', 'pseudo_equivalent_potential_temperature'] in http://129.252.139.124/thredds/dodsC/fldep.binneydock..nc.
09:25:17 WARNING: Cannot get cube for: http://129.252.139.124/thredds/dodsC/fldep.verobeach..nc
Cannot find ['sea_water_temperature', 'sea_surface_temperature', 'sea_water_potential_temperature', 'equivalent_potential_temperature', 'sea_water_conservative_temperature', 'pseudo_equivalent_potential_temperature'] in http://129.252.139.124/thredds/dodsC/fldep.verobeach..nc.
09:27:08 WARNING: Cannot get cube for: http://129.252.139.124/thredds/dodsC/enp.ppta1.met.nc
Cannot find ['sea_water_temperature', 'sea_surface_temperature', 'sea_water_potential_temperature', 'equivalent_potential_temperature', 'sea_water_conservative_temperature', 'pseudo_equivalent_potential_temperature'] in http://129.252.139.124/thredds/dodsC/enp.ppta1.met.nc.
09:28:20 INFO: ********************* Collector offerings **********************
09:28:20 INFO: NOAA.NOS.CO-OPS SOS: 1048 offerings
09:28:23 INFO: SOS URL request: http://opendap.co-ops.nos.noaa.gov/ioos-dif-sos/SOS?eventTime=2014-06-30T12%3A00%3A00Z&service=SOS&offering=urn%3Aioos%3Anetwork%3ANOAA.NOS.CO-OPS%3AMetActive&request=GetObservation&version=1.0.0&responseFormat=text%2Fcsv&featureOfInterest=BBOX%3A-87.4%2C24.25%2C-74.7%2C36.7&observedProperty=sea_water_temperature
09:32:15 INFO: ************************* Observations *************************
09:32:15 INFO: **** Downloading to file 2014-07-07/2014-07-07-OBS_DATA.nc *****
09:34:07 WARNING: /home/filipe/miniconda/envs/SECOORA/lib/python2.7/site-packages/iris/fileformats/netcdf.py:1783: UserWarning: NetCDF default saving behaviour currently assigns the outermost dimensions to unlimited. This behaviour is to be deprecated, in favour of no automatic assignment. To switch to the new behaviour, set iris.FUTURE.netcdf_no_unlimited to True.
  warnings.warn(msg)

09:34:08 INFO: ********************* SECOORA Observations *********************
09:34:08 INFO:  Downloading to file 2014-07-07/2014-07-07-SECOORA_OBS_DATA.nc *
09:34:08 INFO: **************************** Models ****************************
09:34:08 INFO: 
[Reading url 1/99]: http://crow.marine.usf.edu:8080/thredds/dodsC/FVCOM-Nowcast-Agg.nc
09:39:08 WARNING: Cannot get cube for: http://crow.marine.usf.edu:8080/thredds/dodsC/FVCOM-Nowcast-Agg.nc
Timed out!
09:39:08 INFO: 
[Reading url 2/99]: http://crow.marine.usf.edu:8080/thredds/dodsC/WFS_ROMS_NF_model/USF_Ocean_Circulation_Group_West_Florida_Shelf_Daily_ROMS_Nowcast_Forecast_Model_Data_best.ncd
09:39:17 INFO: 
[Reading url 3/99]: http://geoport.whoi.edu/thredds/dodsC/coawst_4/use/fmrc/coawst_4_use_best.ncd
09:40:14 INFO: 
[Reading url 4/99]: http://omgarch1.meas.ncsu.edu:8080/thredds/dodsC/fmrc/sabgom/SABGOM_Forecast_Model_Run_Collection_best.ncd
09:40:57 INFO: 
[Reading url 5/99]: http://oos.soest.hawaii.edu/thredds/dodsC/hioos/satellite/dhw
09:41:01 WARNING: [Not model data]: http://oos.soest.hawaii.edu/thredds/dodsC/hioos/satellite/dhw
09:41:01 INFO: 
[Reading url 6/99]: http://oos.soest.hawaii.edu/thredds/dodsC/pacioos/hycom/global
09:41:06 INFO: 
[Reading url 7/99]: http://tds.marine.rutgers.edu/thredds/dodsC/roms/espresso/2013_da/his_Best/ESPRESSO_Real-Time_v2_History_Best_Available_best.ncd
09:41:31 INFO: 
[Reading url 8/99]: http://tds.secoora.org/thredds/dodsC/carocoops.cap2.buoy.nc
09:41:43 WARNING: [Not model data]: http://tds.secoora.org/thredds/dodsC/carocoops.cap2.buoy.nc
09:41:43 INFO: 
[Reading url 9/99]: http://tds.secoora.org/thredds/dodsC/carocoops.cap2.buoy_archive.nc
09:41:46 WARNING: [Not model data]: http://tds.secoora.org/thredds/dodsC/carocoops.cap2.buoy_archive.nc
09:41:46 INFO: 
[Reading url 10/99]: http://tds.secoora.org/thredds/dodsC/carocoops.frp2.buoy.nc
09:41:50 WARNING: [Not model data]: http://tds.secoora.org/thredds/dodsC/carocoops.frp2.buoy.nc
09:41:50 INFO: 
[Reading url 11/99]: http://tds.secoora.org/thredds/dodsC/carocoops.frp2.buoy_archive.nc
09:41:52 WARNING: [Not model data]: http://tds.secoora.org/thredds/dodsC/carocoops.frp2.buoy_archive.nc
09:41:52 INFO: 
[Reading url 12/99]: http://tds.secoora.org/thredds/dodsC/carocoops.sun2.buoy_archive.nc
09:42:11 WARNING: [Not model data]: http://tds.secoora.org/thredds/dodsC/carocoops.sun2.buoy_archive.nc
09:42:11 INFO: 
[Reading url 13/99]: http://tds.secoora.org/thredds/dodsC/enp.bdvf1.met.nc
09:42:18 WARNING: [Not model data]: http://tds.secoora.org/thredds/dodsC/enp.bdvf1.met.nc
09:42:18 INFO: 
[Reading url 14/99]: http://tds.secoora.org/thredds/dodsC/enp.bnkf1.met.nc
09:42:22 WARNING: [Not model data]: http://tds.secoora.org/thredds/dodsC/enp.bnkf1.met.nc
09:42:22 INFO: 
[Reading url 15/99]: http://tds.secoora.org/thredds/dodsC/enp.bobf1.met.nc
09:42:25 WARNING: [Not model data]: http://tds.secoora.org/thredds/dodsC/enp.bobf1.met.nc
09:42:25 INFO: 
[Reading url 16/99]: http://tds.secoora.org/thredds/dodsC/enp.bwsf1.met.nc
09:42:31 WARNING: [Not model data]: http://tds.secoora.org/thredds/dodsC/enp.bwsf1.met.nc
09:42:31 INFO: 
[Reading url 17/99]: http://tds.secoora.org/thredds/dodsC/enp.canf1.met.nc
09:42:35 WARNING: [Not model data]: http://tds.secoora.org/thredds/dodsC/enp.canf1.met.nc
09:42:35 INFO: 
[Reading url 18/99]: http://tds.secoora.org/thredds/dodsC/enp.cnbf1.met.nc
09:42:39 WARNING: [Not model data]: http://tds.secoora.org/thredds/dodsC/enp.cnbf1.met.nc
09:42:39 INFO: 
[Reading url 19/99]: http://tds.secoora.org/thredds/dodsC/enp.cwaf1.met.nc
09:42:46 WARNING: [Not model data]: http://tds.secoora.org/thredds/dodsC/enp.cwaf1.met.nc
09:42:46 INFO: 
[Reading url 20/99]: http://tds.secoora.org/thredds/dodsC/enp.dkkf1.met.nc
09:42:53 WARNING: [Not model data]: http://tds.secoora.org/thredds/dodsC/enp.dkkf1.met.nc
09:42:53 INFO: 
[Reading url 21/99]: http://tds.secoora.org/thredds/dodsC/enp.gbif1.met.nc
09:42:57 WARNING: [Not model data]: http://tds.secoora.org/thredds/dodsC/enp.gbif1.met.nc
09:42:57 INFO: 
[Reading url 22/99]: http://tds.secoora.org/thredds/dodsC/enp.gbtf1.met.nc
09:43:02 WARNING: [Not model data]: http://tds.secoora.org/thredds/dodsC/enp.gbtf1.met.nc
09:43:02 INFO: 
[Reading url 23/99]: http://tds.secoora.org/thredds/dodsC/enp.hcef1.met.nc
09:43:07 WARNING: [Not model data]: http://tds.secoora.org/thredds/dodsC/enp.hcef1.met.nc
09:43:07 INFO: 
[Reading url 24/99]: http://tds.secoora.org/thredds/dodsC/enp.jkyf1.met.nc
09:43:13 WARNING: [Not model data]: http://tds.secoora.org/thredds/dodsC/enp.jkyf1.met.nc
09:43:13 INFO: 
[Reading url 25/99]: http://tds.secoora.org/thredds/dodsC/enp.lbrf1.met.nc
09:43:18 WARNING: [Not model data]: http://tds.secoora.org/thredds/dodsC/enp.lbrf1.met.nc
09:43:18 INFO: 
[Reading url 26/99]: http://tds.secoora.org/thredds/dodsC/enp.lbsf1.met.nc
09:43:23 WARNING: [Not model data]: http://tds.secoora.org/thredds/dodsC/enp.lbsf1.met.nc
09:43:23 INFO: 
[Reading url 27/99]: http://tds.secoora.org/thredds/dodsC/enp.lmdf1.met.nc
09:43:30 WARNING: [Not model data]: http://tds.secoora.org/thredds/dodsC/enp.lmdf1.met.nc
09:43:30 INFO: 
[Reading url 28/99]: http://tds.secoora.org/thredds/dodsC/enp.lrif1.met.nc
09:43:39 WARNING: [Not model data]: http://tds.secoora.org/thredds/dodsC/enp.lrif1.met.nc
09:43:39 INFO: 
[Reading url 29/99]: http://tds.secoora.org/thredds/dodsC/enp.lrkf1.met.nc
09:43:44 WARNING: [Not model data]: http://tds.secoora.org/thredds/dodsC/enp.lrkf1.met.nc
09:43:44 INFO: 
[Reading url 30/99]: http://tds.secoora.org/thredds/dodsC/enp.mukf1.met.nc
09:43:50 WARNING: [Not model data]: http://tds.secoora.org/thredds/dodsC/enp.mukf1.met.nc
09:43:50 INFO: 
[Reading url 31/99]: http://tds.secoora.org/thredds/dodsC/enp.pkyf1.met.nc
09:43:54 WARNING: [Not model data]: http://tds.secoora.org/thredds/dodsC/enp.pkyf1.met.nc
09:43:54 INFO: 
[Reading url 32/99]: http://tds.secoora.org/thredds/dodsC/enp.tcvf1.met.nc
09:43:59 WARNING: [Not model data]: http://tds.secoora.org/thredds/dodsC/enp.tcvf1.met.nc
09:43:59 INFO: 
[Reading url 33/99]: http://tds.secoora.org/thredds/dodsC/enp.trrf1.met.nc
09:44:04 WARNING: [Not model data]: http://tds.secoora.org/thredds/dodsC/enp.trrf1.met.nc
09:44:04 INFO: 
[Reading url 34/99]: http://tds.secoora.org/thredds/dodsC/enp.wiwf1.met.nc
09:44:08 WARNING: [Not model data]: http://tds.secoora.org/thredds/dodsC/enp.wiwf1.met.nc
09:44:08 INFO: 
[Reading url 35/99]: http://tds.secoora.org/thredds/dodsC/enp.wrbf1.met.nc
09:44:13 WARNING: [Not model data]: http://tds.secoora.org/thredds/dodsC/enp.wrbf1.met.nc
09:44:13 INFO: 
[Reading url 36/99]: http://tds.secoora.org/thredds/dodsC/enp.wwef1.met.nc
09:44:18 WARNING: [Not model data]: http://tds.secoora.org/thredds/dodsC/enp.wwef1.met.nc
09:44:18 INFO: 
[Reading url 37/99]: http://tds.secoora.org/thredds/dodsC/fau.lobo.1.nc
09:44:28 WARNING: [Not model data]: http://tds.secoora.org/thredds/dodsC/fau.lobo.1.nc
09:44:28 INFO: 
[Reading url 38/99]: http://tds.secoora.org/thredds/dodsC/fldep.bingslanding..nc
09:44:39 WARNING: [Not model data]: http://tds.secoora.org/thredds/dodsC/fldep.bingslanding..nc
09:44:39 INFO: 
[Reading url 39/99]: http://tds.secoora.org/thredds/dodsC/fldep.stlucieinlet..nc
09:44:48 WARNING: Cannot get cube for: http://tds.secoora.org/thredds/dodsC/fldep.stlucieinlet..nc
> 1 cube found!  Expected just one.
 [<iris 'Cube' of sea_water_temperature / (celsius) (-- : 112388)>, <iris 'Cube' of sea_water_temperature / (celsius) (-- : 112388)>]
09:44:48 INFO: 
[Reading url 40/99]: http://tds.secoora.org/thredds/dodsC/fldep.tolomatoriver..nc
09:44:59 WARNING: [Not model data]: http://tds.secoora.org/thredds/dodsC/fldep.tolomatoriver..nc
09:44:59 INFO: 
[Reading url 41/99]: http://tds.secoora.org/thredds/dodsC/lbhmc.2ndave.pier.nc
09:45:14 WARNING: [Not model data]: http://tds.secoora.org/thredds/dodsC/lbhmc.2ndave.pier.nc
09:45:14 INFO: 
[Reading url 42/99]: http://tds.secoora.org/thredds/dodsC/lbhmc.apachepier.pier.nc
09:45:22 WARNING: [Not model data]: http://tds.secoora.org/thredds/dodsC/lbhmc.apachepier.pier.nc
09:45:22 INFO: 
[Reading url 43/99]: http://tds.secoora.org/thredds/dodsC/lbhmc.cherrygrove.pier.nc
09:45:30 WARNING: Cannot get cube for: http://tds.secoora.org/thredds/dodsC/lbhmc.cherrygrove.pier.nc
> 1 cube found!  Expected just one.
 [<iris 'Cube' of sea_water_temperature / (celsius) (-- : 42624)>, <iris 'Cube' of sea_water_temperature / (celsius) (-- : 42624)>]
09:45:30 INFO: 
[Reading url 44/99]: http://tds.secoora.org/thredds/dodsC/sccf.fortmyers.wq.nc
09:45:36 WARNING: [Not model data]: http://tds.secoora.org/thredds/dodsC/sccf.fortmyers.wq.nc
09:45:36 INFO: 
[Reading url 45/99]: http://tds.secoora.org/thredds/dodsC/sccf.gulfofmexico.wq.nc
09:45:42 WARNING: [Not model data]: http://tds.secoora.org/thredds/dodsC/sccf.gulfofmexico.wq.nc
09:45:42 INFO: 
[Reading url 46/99]: http://tds.secoora.org/thredds/dodsC/sccf.redfishpass.wq.nc
09:45:46 WARNING: [Not model data]: http://tds.secoora.org/thredds/dodsC/sccf.redfishpass.wq.nc
09:45:46 INFO: 
[Reading url 47/99]: http://tds.secoora.org/thredds/dodsC/sccf.shellpoint.wq.nc
09:45:51 WARNING: [Not model data]: http://tds.secoora.org/thredds/dodsC/sccf.shellpoint.wq.nc
09:45:51 INFO: 
[Reading url 48/99]: http://tds.secoora.org/thredds/dodsC/sccf.tarponbay.wq.nc
09:45:57 WARNING: [Not model data]: http://tds.secoora.org/thredds/dodsC/sccf.tarponbay.wq.nc
09:45:57 INFO: 
[Reading url 49/99]: http://tds.secoora.org/thredds/dodsC/usf.c10.mcat.nc
09:46:04 WARNING: Cannot get cube for: http://tds.secoora.org/thredds/dodsC/usf.c10.mcat.nc
> 1 cube found!  Expected just one.
 [<iris 'Cube' of sea_water_temperature / (celsius) (time: 48234)>, <iris 'Cube' of sea_water_temperature / (celsius) (time: 48234)>]
09:46:04 INFO: 
[Reading url 50/99]: http://tds.secoora.org/thredds/dodsC/usf.c21.weatherpak.nc
09:46:09 WARNING: Cannot get cube for: http://tds.secoora.org/thredds/dodsC/usf.c21.weatherpak.nc
Cannot find ['sea_water_temperature', 'sea_surface_temperature', 'sea_water_potential_temperature', 'equivalent_potential_temperature', 'sea_water_conservative_temperature', 'pseudo_equivalent_potential_temperature'] in http://tds.secoora.org/thredds/dodsC/usf.c21.weatherpak.nc.
09:46:09 INFO: 
[Reading url 51/99]: http://tds.secoora.org/thredds/dodsC/usf.shp.ngwlms.nc
09:46:17 WARNING: [Not model data]: http://tds.secoora.org/thredds/dodsC/usf.shp.ngwlms.nc
09:46:17 INFO: 
[Reading url 52/99]: http://thredds.cdip.ucsd.edu/thredds/dodsC/cdip/archive/028p1/028p1_d16.nc
09:46:28 WARNING: [Not model data]: http://thredds.cdip.ucsd.edu/thredds/dodsC/cdip/archive/028p1/028p1_d16.nc
09:46:28 INFO: 
[Reading url 53/99]: http://thredds.cdip.ucsd.edu/thredds/dodsC/cdip/archive/028p1/028p1_historic.nc
09:47:02 WARNING: [Not model data]: http://thredds.cdip.ucsd.edu/thredds/dodsC/cdip/archive/028p1/028p1_historic.nc
09:47:02 INFO: 
[Reading url 54/99]: http://thredds.cdip.ucsd.edu/thredds/dodsC/cdip/archive/029p1/029p1_d19.nc
09:47:06 WARNING: [Not model data]: http://thredds.cdip.ucsd.edu/thredds/dodsC/cdip/archive/029p1/029p1_d19.nc
09:47:06 INFO: 
[Reading url 55/99]: http://thredds.cdip.ucsd.edu/thredds/dodsC/cdip/archive/029p1/029p1_historic.nc
09:48:13 WARNING: [Not model data]: http://thredds.cdip.ucsd.edu/thredds/dodsC/cdip/archive/029p1/029p1_historic.nc
09:48:13 INFO: 
[Reading url 56/99]: http://thredds.cdip.ucsd.edu/thredds/dodsC/cdip/archive/036p1/036p1_d40.nc
09:48:19 WARNING: [Not model data]: http://thredds.cdip.ucsd.edu/thredds/dodsC/cdip/archive/036p1/036p1_d40.nc
09:48:19 INFO: 
[Reading url 57/99]: http://thredds.cdip.ucsd.edu/thredds/dodsC/cdip/archive/043p1/043p1_d16.nc
09:48:22 WARNING: [Not model data]: http://thredds.cdip.ucsd.edu/thredds/dodsC/cdip/archive/043p1/043p1_d16.nc
09:48:22 INFO: 
[Reading url 58/99]: http://thredds.cdip.ucsd.edu/thredds/dodsC/cdip/archive/043p1/043p1_d17.nc
09:48:26 WARNING: [Not model data]: http://thredds.cdip.ucsd.edu/thredds/dodsC/cdip/archive/043p1/043p1_d17.nc
09:48:26 INFO: 
[Reading url 59/99]: http://thredds.cdip.ucsd.edu/thredds/dodsC/cdip/archive/045p1/045p1_historic.nc
09:48:42 WARNING: [Not model data]: http://thredds.cdip.ucsd.edu/thredds/dodsC/cdip/archive/045p1/045p1_historic.nc
09:48:42 INFO: 
[Reading url 60/99]: http://thredds.cdip.ucsd.edu/thredds/dodsC/cdip/archive/067p1/067p1_d22.nc
09:48:48 WARNING: [Not model data]: http://thredds.cdip.ucsd.edu/thredds/dodsC/cdip/archive/067p1/067p1_d22.nc
09:48:48 INFO: 
[Reading url 61/99]: http://thredds.cdip.ucsd.edu/thredds/dodsC/cdip/archive/067p1/067p1_historic.nc
09:49:18 WARNING: [Not model data]: http://thredds.cdip.ucsd.edu/thredds/dodsC/cdip/archive/067p1/067p1_historic.nc
09:49:18 INFO: 
[Reading url 62/99]: http://thredds.cdip.ucsd.edu/thredds/dodsC/cdip/archive/071p1/071p1_historic.nc
09:49:57 WARNING: [Not model data]: http://thredds.cdip.ucsd.edu/thredds/dodsC/cdip/archive/071p1/071p1_historic.nc
09:49:57 INFO: 
[Reading url 63/99]: http://thredds.cdip.ucsd.edu/thredds/dodsC/cdip/archive/076p1/076p1_d27.nc
09:50:09 WARNING: [Not model data]: http://thredds.cdip.ucsd.edu/thredds/dodsC/cdip/archive/076p1/076p1_d27.nc
09:50:09 INFO: 
[Reading url 64/99]: http://thredds.cdip.ucsd.edu/thredds/dodsC/cdip/archive/093p1/093p1_d40.nc
09:50:12 WARNING: [Not model data]: http://thredds.cdip.ucsd.edu/thredds/dodsC/cdip/archive/093p1/093p1_d40.nc
09:50:12 INFO: 
[Reading url 65/99]: http://thredds.cdip.ucsd.edu/thredds/dodsC/cdip/archive/098p1/098p1_historic.nc
09:50:31 WARNING: [Not model data]: http://thredds.cdip.ucsd.edu/thredds/dodsC/cdip/archive/098p1/098p1_historic.nc
09:50:31 INFO: 
[Reading url 66/99]: http://thredds.cdip.ucsd.edu/thredds/dodsC/cdip/archive/100p1/100p1_d13.nc
09:50:35 WARNING: [Not model data]: http://thredds.cdip.ucsd.edu/thredds/dodsC/cdip/archive/100p1/100p1_d13.nc
09:50:35 INFO: 
[Reading url 67/99]: http://thredds.cdip.ucsd.edu/thredds/dodsC/cdip/archive/100p1/100p1_historic.nc
09:50:48 WARNING: [Not model data]: http://thredds.cdip.ucsd.edu/thredds/dodsC/cdip/archive/100p1/100p1_historic.nc
09:50:48 INFO: 
[Reading url 68/99]: http://thredds.cdip.ucsd.edu/thredds/dodsC/cdip/archive/132p1/132p1_d11.nc
09:50:53 WARNING: [Not model data]: http://thredds.cdip.ucsd.edu/thredds/dodsC/cdip/archive/132p1/132p1_d11.nc
09:50:53 INFO: 
[Reading url 69/99]: http://thredds.cdip.ucsd.edu/thredds/dodsC/cdip/archive/132p1/132p1_historic.nc
09:51:03 WARNING: [Not model data]: http://thredds.cdip.ucsd.edu/thredds/dodsC/cdip/archive/132p1/132p1_historic.nc
09:51:03 INFO: 
[Reading url 70/99]: http://thredds.cdip.ucsd.edu/thredds/dodsC/cdip/archive/134p1/134p1_d09.nc
09:51:09 WARNING: [Not model data]: http://thredds.cdip.ucsd.edu/thredds/dodsC/cdip/archive/134p1/134p1_d09.nc
09:51:09 INFO: 
[Reading url 71/99]: http://thredds.cdip.ucsd.edu/thredds/dodsC/cdip/archive/134p1/134p1_historic.nc
09:51:22 WARNING: [Not model data]: http://thredds.cdip.ucsd.edu/thredds/dodsC/cdip/archive/134p1/134p1_historic.nc
09:51:22 INFO: 
[Reading url 72/99]: http://thredds.cdip.ucsd.edu/thredds/dodsC/cdip/archive/139p1/139p1_d08.nc
09:51:34 WARNING: [Not model data]: http://thredds.cdip.ucsd.edu/thredds/dodsC/cdip/archive/139p1/139p1_d08.nc
09:51:34 INFO: 
[Reading url 73/99]: http://thredds.cdip.ucsd.edu/thredds/dodsC/cdip/archive/139p1/139p1_historic.nc
09:52:18 WARNING: [Not model data]: http://thredds.cdip.ucsd.edu/thredds/dodsC/cdip/archive/139p1/139p1_historic.nc
09:52:18 INFO: 
[Reading url 74/99]: http://thredds.cdip.ucsd.edu/thredds/dodsC/cdip/archive/142p1/142p1_d14.nc
09:52:28 WARNING: [Not model data]: http://thredds.cdip.ucsd.edu/thredds/dodsC/cdip/archive/142p1/142p1_d14.nc
09:52:28 INFO: 
[Reading url 75/99]: http://thredds.cdip.ucsd.edu/thredds/dodsC/cdip/archive/142p1/142p1_historic.nc
09:52:54 WARNING: [Not model data]: http://thredds.cdip.ucsd.edu/thredds/dodsC/cdip/archive/142p1/142p1_historic.nc
09:52:54 INFO: 
[Reading url 76/99]: http://thredds.cdip.ucsd.edu/thredds/dodsC/cdip/archive/143p1/143p1_d11.nc
09:53:00 WARNING: [Not model data]: http://thredds.cdip.ucsd.edu/thredds/dodsC/cdip/archive/143p1/143p1_d11.nc
09:53:00 INFO: 
[Reading url 77/99]: http://thredds.cdip.ucsd.edu/thredds/dodsC/cdip/archive/143p1/143p1_historic.nc
09:53:13 WARNING: [Not model data]: http://thredds.cdip.ucsd.edu/thredds/dodsC/cdip/archive/143p1/143p1_historic.nc
09:53:13 INFO: 
[Reading url 78/99]: http://thredds.cdip.ucsd.edu/thredds/dodsC/cdip/archive/144p1/144p1_d07.nc
09:53:25 WARNING: [Not model data]: http://thredds.cdip.ucsd.edu/thredds/dodsC/cdip/archive/144p1/144p1_d07.nc
09:53:25 INFO: 
[Reading url 79/99]: http://thredds.cdip.ucsd.edu/thredds/dodsC/cdip/archive/144p1/144p1_historic.nc
09:53:56 WARNING: [Not model data]: http://thredds.cdip.ucsd.edu/thredds/dodsC/cdip/archive/144p1/144p1_historic.nc
09:53:56 INFO: 
[Reading url 80/99]: http://thredds.cdip.ucsd.edu/thredds/dodsC/cdip/archive/150p1/150p1_d07.nc
09:54:01 WARNING: [Not model data]: http://thredds.cdip.ucsd.edu/thredds/dodsC/cdip/archive/150p1/150p1_d07.nc
09:54:01 INFO: 
[Reading url 81/99]: http://thredds.cdip.ucsd.edu/thredds/dodsC/cdip/archive/150p1/150p1_historic.nc
09:54:11 WARNING: [Not model data]: http://thredds.cdip.ucsd.edu/thredds/dodsC/cdip/archive/150p1/150p1_historic.nc
09:54:11 INFO: 
[Reading url 82/99]: http://thredds.cdip.ucsd.edu/thredds/dodsC/cdip/archive/156p1/156p1_d07.nc
09:54:20 WARNING: [Not model data]: http://thredds.cdip.ucsd.edu/thredds/dodsC/cdip/archive/156p1/156p1_d07.nc
09:54:20 INFO: 
[Reading url 83/99]: http://thredds.cdip.ucsd.edu/thredds/dodsC/cdip/archive/162p1/162p1_d04.nc
09:54:36 WARNING: [Not model data]: http://thredds.cdip.ucsd.edu/thredds/dodsC/cdip/archive/162p1/162p1_d04.nc
09:54:36 INFO: 
[Reading url 84/99]: http://thredds.cdip.ucsd.edu/thredds/dodsC/cdip/archive/166p1/166p1_d02.nc
09:54:51 WARNING: [Not model data]: http://thredds.cdip.ucsd.edu/thredds/dodsC/cdip/archive/166p1/166p1_d02.nc
09:54:51 INFO: 
[Reading url 85/99]: http://thredds.cdip.ucsd.edu/thredds/dodsC/cdip/archive/168p1/168p1_d05.nc
09:54:56 WARNING: [Not model data]: http://thredds.cdip.ucsd.edu/thredds/dodsC/cdip/archive/168p1/168p1_d05.nc
09:54:56 INFO: 
[Reading url 86/99]: http://thredds.cdip.ucsd.edu/thredds/dodsC/cdip/archive/179p1/179p1_d04.nc
09:55:00 WARNING: [Not model data]: http://thredds.cdip.ucsd.edu/thredds/dodsC/cdip/archive/179p1/179p1_d04.nc
09:55:00 INFO: 
[Reading url 87/99]: http://thredds.cdip.ucsd.edu/thredds/dodsC/cdip/archive/185p1/185p1_d02.nc
09:55:06 WARNING: [Not model data]: http://thredds.cdip.ucsd.edu/thredds/dodsC/cdip/archive/185p1/185p1_d02.nc
09:55:06 INFO: 
[Reading url 88/99]: http://thredds.cdip.ucsd.edu/thredds/dodsC/cdip/archive/185p1/185p1_d03.nc
09:55:09 WARNING: [Not model data]: http://thredds.cdip.ucsd.edu/thredds/dodsC/cdip/archive/185p1/185p1_d03.nc
09:55:09 INFO: 
[Reading url 89/99]: http://thredds.cdip.ucsd.edu/thredds/dodsC/cdip/archive/186p1/186p1_d03.nc
09:55:18 WARNING: [Not model data]: http://thredds.cdip.ucsd.edu/thredds/dodsC/cdip/archive/186p1/186p1_d03.nc
09:55:18 INFO: 
[Reading url 90/99]: http://thredds.cdip.ucsd.edu/thredds/dodsC/cdip/archive/190p1/190p1_d02.nc
09:55:22 WARNING: [Not model data]: http://thredds.cdip.ucsd.edu/thredds/dodsC/cdip/archive/190p1/190p1_d02.nc
09:55:22 INFO: 
[Reading url 91/99]: http://thredds.cdip.ucsd.edu/thredds/dodsC/cdip/archive/190p1/190p1_historic.nc
09:55:28 WARNING: [Not model data]: http://thredds.cdip.ucsd.edu/thredds/dodsC/cdip/archive/190p1/190p1_historic.nc
09:55:28 INFO: 
[Reading url 92/99]: http://thredds.cdip.ucsd.edu/thredds/dodsC/cdip/archive/191p1/191p1_d12.nc
09:55:34 WARNING: [Not model data]: http://thredds.cdip.ucsd.edu/thredds/dodsC/cdip/archive/191p1/191p1_d12.nc
09:55:34 INFO: 
[Reading url 93/99]: http://thredds.cdip.ucsd.edu/thredds/dodsC/cdip/archive/192p1/192p1_d02.nc
09:55:52 WARNING: [Not model data]: http://thredds.cdip.ucsd.edu/thredds/dodsC/cdip/archive/192p1/192p1_d02.nc
09:55:52 INFO: 
[Reading url 94/99]: http://thredds.cdip.ucsd.edu/thredds/dodsC/cdip/archive/192p1/192p1_historic.nc
09:56:01 WARNING: [Not model data]: http://thredds.cdip.ucsd.edu/thredds/dodsC/cdip/archive/192p1/192p1_historic.nc
09:56:01 INFO: 
[Reading url 95/99]: http://thredds.cdip.ucsd.edu/thredds/dodsC/cdip/archive/201p1/201p1_d02.nc
09:56:12 WARNING: [Not model data]: http://thredds.cdip.ucsd.edu/thredds/dodsC/cdip/archive/201p1/201p1_d02.nc
09:56:12 INFO: 
[Reading url 96/99]: http://thredds.cdip.ucsd.edu/thredds/dodsC/cdip/archive/203p1/203p1_d01.nc
09:56:18 WARNING: [Not model data]: http://thredds.cdip.ucsd.edu/thredds/dodsC/cdip/archive/203p1/203p1_d01.nc
09:56:18 INFO: 
[Reading url 97/99]: http://thredds.cdip.ucsd.edu/thredds/dodsC/cdip/archive/430p1/430p1_historic.nc
09:56:25 WARNING: [Not model data]: http://thredds.cdip.ucsd.edu/thredds/dodsC/cdip/archive/430p1/430p1_historic.nc
09:56:25 INFO: 
[Reading url 98/99]: http://omgsrv1.meas.ncsu.edu:8080/thredds/dodsC/fmrc/us_east/US_East_Forecast_Model_Run_Collection_best.ncd
09:56:45 WARNING: Cannot get cube for: http://omgsrv1.meas.ncsu.edu:8080/thredds/dodsC/fmrc/us_east/US_East_Forecast_Model_Run_Collection_best.ncd
istart must be different from istop! Got istart 0 and  istop 0
09:56:45 INFO: 
[Reading url 99/99]: http://crow.marine.usf.edu:8080/thredds/dodsC/WFS_SWAN_NF_model/USF_Ocean_Circulation_Group_West_Florida_Shelf_Daily_SWAN_Nowcast_Forecast_Wave_Model_Data_best.ncd
09:56:46 WARNING: Cannot get cube for: http://crow.marine.usf.edu:8080/thredds/dodsC/WFS_SWAN_NF_model/USF_Ocean_Circulation_Group_West_Florida_Shelf_Daily_SWAN_Nowcast_Forecast_Wave_Model_Data_best.ncd
Cannot find ['sea_water_temperature', 'sea_surface_temperature', 'sea_water_potential_temperature', 'equivalent_potential_temperature', 'sea_water_conservative_temperature', 'pseudo_equivalent_potential_temperature'] in http://crow.marine.usf.edu:8080/thredds/dodsC/WFS_SWAN_NF_model/USF_Ocean_Circulation_Group_West_Florida_Shelf_Daily_SWAN_Nowcast_Forecast_Wave_Model_Data_best.ncd.
09:56:46 INFO: **** Downloading to file 2014-07-07/2014-07-07-USF_ROMS.nc *****
09:56:46 INFO: [No Data] Duck, NC
09:56:46 INFO: [No Data] Oregon Inlet Marina, NC
09:56:46 INFO: [No Data] USCG Station Hatteras, NC
09:56:46 INFO: [No Data] Beaufort, NC
09:56:46 INFO: [No Data] Wilmington, NC
09:56:46 INFO: [No Data] Wrightsville Beach, NC
09:56:46 INFO: [No Data] Springmaid Pier, SC
09:56:46 INFO: [No Data] Charleston, SC
09:56:46 INFO: [No Data] Fort Pulaski, GA
09:56:46 INFO: [No Data] Fernandina Beach, FL
09:56:46 INFO: [No Data] Mayport (Bar Pilots Dock), FL
09:56:46 INFO: [No Data] Dames Point, FL
09:56:46 INFO: [No Data] Jacksonville University, FL
09:56:46 INFO: [No Data] I-295 Bridge, St Johns River, FL
09:56:46 INFO: [No Data] Red Bay Point, St Johns River, FL
09:56:46 INFO: [No Data] Racy Point, St Johns River, FL
09:56:46 INFO: [No Data] Trident Pier, FL
09:56:46 INFO: [No Data] Lake Worth Pier, FL
09:56:46 INFO: [No Data] Vaca Key, FL
09:56:46 INFO: [No Data] Key West, FL
09:56:50 INFO: [Water  ] Naples, FL
09:56:53 INFO: [Water  ] Fort Myers, FL
09:57:01 INFO: [Water  ] Port Manatee, FL
09:57:01 INFO: [No Data] St Petersburg, FL
09:57:05 INFO: [Water  ] Old Port Tampa, FL
09:57:13 INFO: [Water  ] Apalachicola, FL
09:57:22 INFO: [Water  ] Panama City, FL
09:57:30 INFO: [Water  ] Panama City Beach, FL
09:57:30 INFO: [No Data] Pensacola, FL
09:57:35 INFO: [Water  ] Gulf of Mexico station
09:57:35 INFO: [No Data] Taylor River, FL
09:57:40 INFO: [Water  ] Redfish Pass station
09:57:40 INFO: [No Data] Little Rabbit Key, FL
09:57:44 INFO: [Water  ] Peterson Key, FL
09:57:44 INFO: [No Data] CORMP ILM2, Wrightsville Beach Nearshore, NC
09:57:44 INFO: [No Data] fau_lobo_1
09:57:44 INFO: [No Data] Cherry Grove Pier, N. Myrtle Beach, SC
09:57:47 INFO: [Water  ] Tarpon Bay station
09:57:51 INFO: [Water  ] Broad River, FL
09:57:58 INFO: [Water  ] Murray Key, FL
09:58:07 INFO: [Water  ] Blackwater Sound, FL
09:58:11 INFO: [Water  ] Butternut Key, FL
09:58:14 INFO: [Water  ] Shell Point station
09:58:14 INFO: [No Data] 2nd Ave North Pier, Myrtle Beach, SC
09:58:18 INFO: [Water  ] Little Blackwater, FL
09:58:18 INFO: [No Data] Trout Cove, FL
09:58:18 INFO: [No Data] White Water -West, FL
09:58:22 INFO: [Water  ] Cane Patch, FL
09:58:22 INFO: [No Data] Sebastian Inlet met station
09:58:34 INFO: [Water  ] Shell Point
09:58:34 INFO: [No Data] Bing's Landing station
09:58:34 INFO: [No Data] CAROCOOPS CAP2, Capers Island Nearshore, SC
09:58:38 INFO: [Water  ] Johnson Key, FL
09:58:42 INFO: [Water  ] Broad River Lower, FL
09:58:47 INFO: [Water  ] Clear Water Pass, FL 
09:58:47 INFO: [No Data] Little Madeira, FL
09:58:54 INFO: [Water  ] Highway Creek, FL
09:58:54 INFO: [No Data] Gunboat Island, FL
09:58:54 INFO: [No Data] CAROCOOPS FRP2, Fripp Nearshore, SC
09:59:03 INFO: [Water  ] Cannon Bay, FL
09:59:03 INFO: [No Data] Apache Pier, Myrtle Beach, SC
09:59:03 INFO: [No Data] Tolomato River station
09:59:03 INFO: [No Data] Whipray Basin, FL
09:59:03 INFO: [No Data] Garfield Bight, FL
09:59:07 INFO: [Water  ] Lane River, FL 
09:59:07 INFO: [No Data] St Lucie Inlet station
09:59:07 INFO: [No Data] Duck Key, FL
09:59:07 INFO: [No Data] CORMP ILM3, Wrightsville Beach Offshore, NC
09:59:07 INFO: [No Data] Fort Myers station
09:59:13 INFO: [Water  ] Willy Willy, FL
09:59:13 INFO: [No Data] CAROCOOPS SUN2, Sunset Nearshore, NC
09:59:22 INFO: [Water  ] Bob Allen, FL
10:00:19 INFO: Finished processing [USF_ROMS]: http://crow.marine.usf.edu:8080/thredds/dodsC/WFS_SWAN_NF_model/USF_Ocean_Circulation_Group_West_Florida_Shelf_Daily_SWAN_Nowcast_Forecast_Wave_Model_Data_best.ncd

10:00:19 INFO: * Downloading to file 2014-07-07/2014-07-07-SABGOM_ARCHIVE.nc **
10:00:31 INFO: [Water  ] Duck, NC
10:00:38 INFO: [Land   ] Oregon Inlet Marina, NC
10:00:43 INFO: [Water  ] USCG Station Hatteras, NC
10:00:49 INFO: [Land   ] Beaufort, NC
10:00:55 INFO: [Land   ] Wilmington, NC
10:01:00 INFO: [Water  ] Wrightsville Beach, NC
10:01:06 INFO: [Water  ] Springmaid Pier, SC
10:01:12 INFO: [Land   ] Charleston, SC
10:01:18 INFO: [Land   ] Fort Pulaski, GA
10:01:24 INFO: [Land   ] Fernandina Beach, FL
10:01:33 INFO: [Land   ] Mayport (Bar Pilots Dock), FL
10:01:40 INFO: [Land   ] Dames Point, FL
10:01:46 INFO: [Land   ] Jacksonville University, FL
10:01:53 INFO: [Land   ] I-295 Bridge, St Johns River, FL
10:01:59 INFO: [Land   ] Red Bay Point, St Johns River, FL
10:02:05 INFO: [Land   ] Racy Point, St Johns River, FL
10:02:18 INFO: [Land   ] Trident Pier, FL
10:02:31 INFO: [Land   ] Lake Worth Pier, FL
10:02:45 INFO: [Land   ] Vaca Key, FL
10:02:51 INFO: [Water  ] Key West, FL
10:02:57 INFO: [Land   ] Naples, FL
10:03:03 INFO: [Land   ] Fort Myers, FL
10:03:16 INFO: [Land   ] Port Manatee, FL
10:03:28 INFO: [Land   ] St Petersburg, FL
10:03:41 INFO: [Water  ] Old Port Tampa, FL
10:03:48 INFO: [Land   ] Apalachicola, FL
10:03:54 INFO: [Land   ] Panama City, FL
10:04:07 INFO: [Water  ] Panama City Beach, FL
10:04:13 INFO: [Land   ] Pensacola, FL
10:04:25 INFO: [Land   ] Gulf of Mexico station
10:04:32 INFO: [Land   ] Taylor River, FL
10:04:44 INFO: [Water  ] Redfish Pass station
10:04:50 INFO: [Water  ] Little Rabbit Key, FL
10:05:03 INFO: [Water  ] Peterson Key, FL
10:05:09 INFO: [Water  ] CORMP ILM2, Wrightsville Beach Nearshore, NC
10:05:15 INFO: [Land   ] fau_lobo_1
10:05:21 INFO: [Land   ] Cherry Grove Pier, N. Myrtle Beach, SC
10:05:27 INFO: [Water  ] Tarpon Bay station
10:05:34 INFO: [Land   ] Broad River, FL
10:05:47 INFO: [Water  ] Murray Key, FL
10:05:53 INFO: [Land   ] Blackwater Sound, FL
10:05:59 INFO: [Water  ] Butternut Key, FL
10:06:05 INFO: [Land   ] Shell Point station
10:06:18 INFO: [Land   ] 2nd Ave North Pier, Myrtle Beach, SC
10:06:24 INFO: [Land   ] Little Blackwater, FL
10:06:36 INFO: [Land   ] Trout Cove, FL
10:06:42 INFO: [Land   ] White Water -West, FL
10:06:48 INFO: [Land   ] Cane Patch, FL
10:07:00 INFO: [Water  ] Sebastian Inlet met station
10:07:06 INFO: [Land   ] Shell Point
10:07:12 INFO: [Land   ] Bing's Landing station
10:07:19 INFO: [Water  ] CAROCOOPS CAP2, Capers Island Nearshore, SC
10:07:25 INFO: [Water  ] Johnson Key, FL
10:07:32 INFO: [Land   ] Broad River Lower, FL
10:07:39 INFO: [Land   ] Clear Water Pass, FL 
10:07:52 INFO: [Water  ] Little Madeira, FL
10:07:59 INFO: [Land   ] Highway Creek, FL
10:08:06 INFO: [Land   ] Gunboat Island, FL
10:08:13 INFO: [Water  ] CAROCOOPS FRP2, Fripp Nearshore, SC
10:08:20 INFO: [Land   ] Cannon Bay, FL
10:08:27 INFO: [Land   ] Apache Pier, Myrtle Beach, SC
10:08:33 INFO: [Land   ] Tolomato River station
10:08:47 INFO: [Water  ] Whipray Basin, FL
10:08:56 INFO: [Land   ] Garfield Bight, FL
10:09:02 INFO: [Land   ] Lane River, FL 
10:09:17 INFO: [Water  ] St Lucie Inlet station
10:09:32 INFO: [Water  ] Duck Key, FL
10:09:46 INFO: [Water  ] CORMP ILM3, Wrightsville Beach Offshore, NC
10:09:55 INFO: [Land   ] Fort Myers station
10:10:02 INFO: [Land   ] Willy Willy, FL
10:10:18 INFO: [Water  ] CAROCOOPS SUN2, Sunset Nearshore, NC
10:10:31 INFO: [Water  ] Bob Allen, FL
10:11:59 INFO: Finished processing [SABGOM_ARCHIVE]: http://crow.marine.usf.edu:8080/thredds/dodsC/WFS_SWAN_NF_model/USF_Ocean_Circulation_Group_West_Florida_Shelf_Daily_SWAN_Nowcast_Forecast_Wave_Model_Data_best.ncd

10:11:59 INFO: **** Downloading to file 2014-07-07/2014-07-07-COAWST_4.nc *****
10:12:13 INFO: [Land   ] Duck, NC
10:12:32 INFO: [Water  ] Oregon Inlet Marina, NC
10:12:42 INFO: [Water  ] USCG Station Hatteras, NC
10:13:01 INFO: [Land   ] Beaufort, NC
10:13:11 INFO: [Land   ] Wilmington, NC
10:13:21 INFO: [Water  ] Wrightsville Beach, NC
10:13:43 INFO: [Water  ] Springmaid Pier, SC
10:13:57 INFO: [Land   ] Charleston, SC
10:14:07 INFO: [Land   ] Fort Pulaski, GA
10:14:17 INFO: [Land   ] Fernandina Beach, FL
10:14:27 INFO: [Land   ] Mayport (Bar Pilots Dock), FL
10:14:37 INFO: [Land   ] Dames Point, FL
10:14:47 INFO: [Land   ] Jacksonville University, FL
10:14:56 INFO: [Land   ] I-295 Bridge, St Johns River, FL
10:15:08 INFO: [Land   ] Red Bay Point, St Johns River, FL
10:15:18 INFO: [Land   ] Racy Point, St Johns River, FL
10:15:28 INFO: [Land   ] Trident Pier, FL
10:15:49 INFO: [Water  ] Lake Worth Pier, FL
10:16:05 INFO: [Land   ] Vaca Key, FL
10:16:25 INFO: [Water  ] Key West, FL
10:16:34 INFO: [Land   ] Naples, FL
10:16:44 INFO: [Land   ] Fort Myers, FL
10:16:55 INFO: [Land   ] Port Manatee, FL
10:17:06 INFO: [Land   ] St Petersburg, FL
10:17:26 INFO: [Water  ] Old Port Tampa, FL
10:17:37 INFO: [Water  ] Apalachicola, FL
10:17:52 INFO: [Water  ] Panama City, FL
10:18:13 INFO: [Land   ] Panama City Beach, FL
10:18:24 INFO: [Water  ] Pensacola, FL
10:18:45 INFO: [Water  ] Gulf of Mexico station
10:18:56 INFO: [Land   ] Taylor River, FL
10:19:17 INFO: [Water  ] Redfish Pass station
10:19:27 INFO: [Water  ] Little Rabbit Key, FL
10:19:39 INFO: [Water  ] Peterson Key, FL
10:19:59 INFO: [Water  ] CORMP ILM2, Wrightsville Beach Nearshore, NC
10:20:10 INFO: [Land   ] fau_lobo_1
10:20:20 INFO: [Land   ] Cherry Grove Pier, N. Myrtle Beach, SC
10:20:30 INFO: [Water  ] Tarpon Bay station
10:20:45 INFO: [Land   ] Broad River, FL
10:20:55 INFO: [Water  ] Murray Key, FL
10:21:09 INFO: [Land   ] Blackwater Sound, FL
10:21:30 INFO: [Water  ] Butternut Key, FL
10:21:52 INFO: [Land   ] Shell Point station
10:22:13 INFO: [Water  ] 2nd Ave North Pier, Myrtle Beach, SC
10:22:23 INFO: [Land   ] Little Blackwater, FL
10:22:35 INFO: [Land   ] Trout Cove, FL
10:22:45 INFO: [Water  ] White Water -West, FL
10:22:56 INFO: [Land   ] Cane Patch, FL
10:23:06 INFO: [Water  ] Sebastian Inlet met station
10:23:17 INFO: [Land   ] Shell Point
10:23:28 INFO: [Land   ] Bing's Landing station
10:23:50 INFO: [Water  ] CAROCOOPS CAP2, Capers Island Nearshore, SC
10:24:00 INFO: [Water  ] Johnson Key, FL
10:24:11 INFO: [Land   ] Broad River Lower, FL
10:24:22 INFO: [Water  ] Clear Water Pass, FL 
10:24:32 INFO: [Water  ] Little Madeira, FL
10:24:43 INFO: [Land   ] Highway Creek, FL
10:24:53 INFO: [Land   ] Gunboat Island, FL
10:25:04 INFO: [Water  ] CAROCOOPS FRP2, Fripp Nearshore, SC
10:25:15 INFO: [Land   ] Cannon Bay, FL
10:25:26 INFO: [Land   ] Apache Pier, Myrtle Beach, SC
10:25:39 INFO: [Land   ] Tolomato River station
10:26:00 INFO: [Water  ] Whipray Basin, FL
10:26:10 INFO: [Water  ] Garfield Bight, FL
10:26:20 INFO: [Land   ] Lane River, FL 
10:26:42 INFO: [Water  ] St Lucie Inlet station
10:26:52 INFO: [Water  ] Duck Key, FL
10:27:03 INFO: [Water  ] CORMP ILM3, Wrightsville Beach Offshore, NC
10:27:14 INFO: [Land   ] Fort Myers station
10:27:24 INFO: [Land   ] Willy Willy, FL
10:27:36 INFO: [Water  ] CAROCOOPS SUN2, Sunset Nearshore, NC
10:27:46 INFO: [Water  ] Bob Allen, FL
10:30:26 INFO: Finished processing [COAWST_4]: http://crow.marine.usf.edu:8080/thredds/dodsC/WFS_SWAN_NF_model/USF_Ocean_Circulation_Group_West_Florida_Shelf_Daily_SWAN_Nowcast_Forecast_Wave_Model_Data_best.ncd

10:30:26 INFO: **** Downloading to file 2014-07-07/2014-07-07-ESPRESSO.nc *****
10:30:36 INFO: [Land   ] Duck, NC
10:30:45 INFO: [Water  ] Oregon Inlet Marina, NC
10:30:53 INFO: [Land   ] USCG Station Hatteras, NC
10:31:01 INFO: [Water  ] Beaufort, NC
10:31:01 INFO: [No Data] Wilmington, NC
10:31:01 INFO: [No Data] Wrightsville Beach, NC
10:31:01 INFO: [No Data] Springmaid Pier, SC
10:31:01 INFO: [No Data] Charleston, SC
10:31:01 INFO: [No Data] Fort Pulaski, GA
10:31:01 INFO: [No Data] Fernandina Beach, FL
10:31:01 INFO: [No Data] Mayport (Bar Pilots Dock), FL
10:31:01 INFO: [No Data] Dames Point, FL
10:31:01 INFO: [No Data] Jacksonville University, FL
10:31:01 INFO: [No Data] I-295 Bridge, St Johns River, FL
10:31:01 INFO: [No Data] Red Bay Point, St Johns River, FL
10:31:01 INFO: [No Data] Racy Point, St Johns River, FL
10:31:01 INFO: [No Data] Trident Pier, FL
10:31:01 INFO: [No Data] Lake Worth Pier, FL
10:31:01 INFO: [No Data] Vaca Key, FL
10:31:01 INFO: [No Data] Key West, FL
10:31:01 INFO: [No Data] Naples, FL
10:31:01 INFO: [No Data] Fort Myers, FL
10:31:01 INFO: [No Data] Port Manatee, FL
10:31:01 INFO: [No Data] St Petersburg, FL
10:31:01 INFO: [No Data] Old Port Tampa, FL
10:31:01 INFO: [No Data] Apalachicola, FL
10:31:01 INFO: [No Data] Panama City, FL
10:31:01 INFO: [No Data] Panama City Beach, FL
10:31:01 INFO: [No Data] Pensacola, FL
10:31:01 INFO: [No Data] Gulf of Mexico station
10:31:01 INFO: [No Data] Taylor River, FL
10:31:01 INFO: [No Data] Redfish Pass station
10:31:01 INFO: [No Data] Little Rabbit Key, FL
10:31:01 INFO: [No Data] Peterson Key, FL
10:31:01 INFO: [No Data] CORMP ILM2, Wrightsville Beach Nearshore, NC
10:31:01 INFO: [No Data] fau_lobo_1
10:31:01 INFO: [No Data] Cherry Grove Pier, N. Myrtle Beach, SC
10:31:01 INFO: [No Data] Tarpon Bay station
10:31:01 INFO: [No Data] Broad River, FL
10:31:01 INFO: [No Data] Murray Key, FL
10:31:01 INFO: [No Data] Blackwater Sound, FL
10:31:01 INFO: [No Data] Butternut Key, FL
10:31:01 INFO: [No Data] Shell Point station
10:31:01 INFO: [No Data] 2nd Ave North Pier, Myrtle Beach, SC
10:31:01 INFO: [No Data] Little Blackwater, FL
10:31:01 INFO: [No Data] Trout Cove, FL
10:31:01 INFO: [No Data] White Water -West, FL
10:31:01 INFO: [No Data] Cane Patch, FL
10:31:01 INFO: [No Data] Sebastian Inlet met station
10:31:01 INFO: [No Data] Shell Point
10:31:01 INFO: [No Data] Bing's Landing station
10:31:01 INFO: [No Data] CAROCOOPS CAP2, Capers Island Nearshore, SC
10:31:01 INFO: [No Data] Johnson Key, FL
10:31:01 INFO: [No Data] Broad River Lower, FL
10:31:01 INFO: [No Data] Clear Water Pass, FL 
10:31:01 INFO: [No Data] Little Madeira, FL
10:31:01 INFO: [No Data] Highway Creek, FL
10:31:01 INFO: [No Data] Gunboat Island, FL
10:31:01 INFO: [No Data] CAROCOOPS FRP2, Fripp Nearshore, SC
10:31:01 INFO: [No Data] Cannon Bay, FL
10:31:01 INFO: [No Data] Apache Pier, Myrtle Beach, SC
10:31:01 INFO: [No Data] Tolomato River station
10:31:01 INFO: [No Data] Whipray Basin, FL
10:31:01 INFO: [No Data] Garfield Bight, FL
10:31:01 INFO: [No Data] Lane River, FL 
10:31:01 INFO: [No Data] St Lucie Inlet station
10:31:01 INFO: [No Data] Duck Key, FL
10:31:01 INFO: [No Data] CORMP ILM3, Wrightsville Beach Offshore, NC
10:31:01 INFO: [No Data] Fort Myers station
10:31:01 INFO: [No Data] Willy Willy, FL
10:31:01 INFO: [No Data] CAROCOOPS SUN2, Sunset Nearshore, NC
10:31:01 INFO: [No Data] Bob Allen, FL
10:31:06 INFO: Finished processing [ESPRESSO]: http://crow.marine.usf.edu:8080/thredds/dodsC/WFS_SWAN_NF_model/USF_Ocean_Circulation_Group_West_Florida_Shelf_Daily_SWAN_Nowcast_Forecast_Wave_Model_Data_best.ncd

10:31:06 INFO: ****** Downloading to file 2014-07-07/2014-07-07-HYCOM.nc ******
10:31:18 INFO: [Land   ] Duck, NC
10:31:22 INFO: [Water  ] Oregon Inlet Marina, NC
10:31:27 INFO: [Land   ] USCG Station Hatteras, NC
10:31:31 INFO: [Land   ] Beaufort, NC
10:31:37 INFO: [Land   ] Wilmington, NC
10:31:43 INFO: [Water  ] Wrightsville Beach, NC
10:31:43 INFO: [No Data] Springmaid Pier, SC
10:31:46 INFO: [Land   ] Charleston, SC
10:31:50 INFO: [Land   ] Fort Pulaski, GA
10:31:54 INFO: [Land   ] Fernandina Beach, FL
10:31:58 INFO: [Land   ] Mayport (Bar Pilots Dock), FL
10:32:01 INFO: [Land   ] Dames Point, FL
10:32:05 INFO: [Land   ] Jacksonville University, FL
10:32:09 INFO: [Land   ] I-295 Bridge, St Johns River, FL
10:32:12 INFO: [Land   ] Red Bay Point, St Johns River, FL
10:32:12 INFO: [No Data] Racy Point, St Johns River, FL
10:32:17 INFO: [Land   ] Trident Pier, FL
10:32:21 INFO: [Water  ] Lake Worth Pier, FL
10:32:25 INFO: [Land   ] Vaca Key, FL
10:32:29 INFO: [Land   ] Key West, FL
10:32:29 INFO: [No Data] Naples, FL
10:32:32 INFO: [Land   ] Fort Myers, FL
10:32:36 INFO: [Land   ] Port Manatee, FL
10:32:40 INFO: [Land   ] St Petersburg, FL
10:32:44 INFO: [Land   ] Old Port Tampa, FL
10:32:48 INFO: [Land   ] Apalachicola, FL
10:32:53 INFO: [Land   ] Panama City, FL
10:32:53 INFO: [No Data] Panama City Beach, FL
10:32:57 INFO: [Land   ] Pensacola, FL
10:33:00 INFO: [Land   ] Gulf of Mexico station
10:33:04 INFO: [Land   ] Taylor River, FL
10:33:08 INFO: [Land   ] Redfish Pass station
10:33:12 INFO: [Land   ] Little Rabbit Key, FL
10:33:16 INFO: [Land   ] Peterson Key, FL
10:33:16 INFO: [No Data] CORMP ILM2, Wrightsville Beach Nearshore, NC
10:33:19 INFO: [Land   ] fau_lobo_1
10:33:23 INFO: [Land   ] Cherry Grove Pier, N. Myrtle Beach, SC
10:33:31 INFO: [Land   ] Tarpon Bay station
10:33:31 INFO: [No Data] Broad River, FL
10:33:36 INFO: [Land   ] Murray Key, FL
10:33:36 INFO: [No Data] Blackwater Sound, FL
10:33:40 INFO: [Land   ] Butternut Key, FL
10:33:44 INFO: [Land   ] Shell Point station
10:33:48 INFO: [Land   ] 2nd Ave North Pier, Myrtle Beach, SC
10:33:54 INFO: [Land   ] Little Blackwater, FL
10:33:58 INFO: [Land   ] Trout Cove, FL
10:34:04 INFO: [Land   ] White Water -West, FL
10:34:10 INFO: [Land   ] Cane Patch, FL
10:34:14 INFO: [Land   ] Sebastian Inlet met station
10:34:18 INFO: [Land   ] Shell Point
10:34:22 INFO: [Land   ] Bing's Landing station
10:34:26 INFO: [Water  ] CAROCOOPS CAP2, Capers Island Nearshore, SC
10:34:30 INFO: [Land   ] Johnson Key, FL
10:34:36 INFO: [Land   ] Broad River Lower, FL
10:34:42 INFO: [Land   ] Clear Water Pass, FL 
10:34:46 INFO: [Land   ] Little Madeira, FL
10:34:46 INFO: [No Data] Highway Creek, FL
10:34:50 INFO: [Land   ] Gunboat Island, FL
10:34:59 INFO: [Water  ] CAROCOOPS FRP2, Fripp Nearshore, SC
10:35:03 INFO: [Land   ] Cannon Bay, FL
10:35:06 INFO: [Land   ] Apache Pier, Myrtle Beach, SC
10:35:10 INFO: [Land   ] Tolomato River station
10:35:15 INFO: [Land   ] Whipray Basin, FL
10:35:19 INFO: [Land   ] Garfield Bight, FL
10:35:22 INFO: [Land   ] Lane River, FL 
10:35:26 INFO: [Land   ] St Lucie Inlet station
10:35:29 INFO: [Land   ] Duck Key, FL
10:35:33 INFO: [Water  ] CORMP ILM3, Wrightsville Beach Offshore, NC
10:35:33 INFO: [No Data] Fort Myers station
10:35:37 INFO: [Land   ] Willy Willy, FL
10:35:41 INFO: [Water  ] CAROCOOPS SUN2, Sunset Nearshore, NC
10:35:41 INFO: [No Data] Bob Allen, FL
10:35:41 INFO: Finished processing [HYCOM]: http://crow.marine.usf.edu:8080/thredds/dodsC/WFS_SWAN_NF_model/USF_Ocean_Circulation_Group_West_Florida_Shelf_Daily_SWAN_Nowcast_Forecast_Wave_Model_Data_best.ncd

10:35:42 WARNING: /home/filipe/miniconda/envs/SECOORA/lib/python2.7/site-packages/numpy/core/_methods.py:59: RuntimeWarning: Mean of empty slice.
  warnings.warn("Mean of empty slice.", RuntimeWarning)

10:35:55 INFO: 75.27 minutes
10:35:55 INFO: EOF
