05:25:42 INFO: ************Saving data inside directory 2014-07-07*************
05:25:42 INFO: *********************** Run information ************************
05:25:42 INFO: Run date: 2015-03-23 20:25:42
05:25:42 INFO: Download start: 2014-06-30 12:00:00
05:25:42 INFO: Download stop: 2014-07-07 12:00:00
05:25:42 INFO: Bounding box: -87.40, 24.25,-74.70, 36.70
05:25:42 INFO: *********************** Software version ***********************
05:25:42 INFO: Iris version: 1.8.0-DEV
05:25:42 INFO: owslib version: 0.8.13
05:25:42 INFO: pyoos version: 0.6.2
05:25:52 INFO: ********************* Catalog information **********************
05:25:52 INFO: URL: http://www.ngdc.noaa.gov/geoportal/csw
05:25:52 INFO: CSW version: 2.0.2
05:25:52 INFO: Number of datasets available: 94
05:25:52 INFO: ***************************** CSW ******************************
05:25:52 INFO: USF FVCOM - Nowcast Aggregation
05:25:52 INFO: ROMS/TOMS 3.0 - New Floria Shelf Application
05:25:52 INFO: ROMS/TOMS 3.0 - South-Atlantic Bight and Gulf of Mexico
05:25:52 INFO: COAWST Forecast System : USGS : US East Coast and Gulf of Mexico (Experimental)
05:25:52 INFO: Directional wave and sea surface temperature measurements collected in situ by Datawell Mark 3 directional buoy located near MONTEREY CANYON OUTER, CA from 2013/07/11 17:00:00 to 2014/07/01 20:59:59.
05:25:52 INFO: Directional wave and sea surface temperature measurements collected in situ by Datawell Mark 3 directional buoy located near MONTEREY BAY WEST, CA from 2013/06/19 18:00:00 to 2014/07/01 14:59:59.
05:25:52 INFO: Directional wave and sea surface temperature measurements collected in situ by Datawell Mark 3 directional buoy located near MONTEREY BAY WEST, CA from 2014/07/01 19:00:00 to 2014/10/04 23:59:59.
05:25:52 INFO: Directional wave and sea surface temperature measurements collected in situ by Datawell Mark 3 directional buoy located near SAN FRANCISCO BAR, CA from 2013/06/19 22:00:00 to 2014/07/24 14:59:59.
05:25:52 INFO: Directional wave and sea surface temperature measurements collected in situ by Datawell Mark 3 directional buoy located near POINT REYES, CA from 2013/10/16 21:00:00 to 2014/09/05 11:59:59.
05:25:52 INFO: Directional wave and sea surface temperature measurements collected in situ by Datawell Mark 3 directional buoy located near HUMBOLDT BAY NORTH SPIT, CA from 2013/08/26 19:00:00 to 2014/07/24 03:59:59.
05:25:52 INFO: Directional wave and sea surface temperature measurements collected in situ by Datawell Mark 3 directional buoy located near DIABLO CANYON, CA from 2013/08/28 23:00:00 to 2014/10/29 16:59:59.
05:25:52 INFO: Directional wave and sea surface temperature measurements collected in situ by Datawell Mark 3 directional buoy located near CLATSOP SPIT, OR from 2013/07/18 20:00:00 to 2015/01/12 18:59:59.
05:25:52 INFO: Directional wave and sea surface temperature measurements collected in situ by Datawell Mark 3 directional buoy located near ASTORIA CANYON, OR from 2014/01/16 20:00:00 to 2014/09/29 22:59:59.
05:25:52 INFO: Directional wave and sea surface temperature measurements collected in situ by Datawell Mark 3 directional buoy located near GRAYS HARBOR, WA from 2013/10/13 19:00:00 to 2015/01/28 15:59:59.
05:25:52 INFO: Directional wave and sea surface temperature measurements collected in situ by Datawell Waverider buoys located near SAN FRANCISCO BAR, CA from 2007/07/25 to 2014/07/24.
05:25:52 INFO: Directional wave and sea surface temperature measurements collected in situ by Datawell Mark 3 directional buoy located near SANTA MONICA BAY, CA from 2013/12/18 21:00:00 to 2015/02/18 18:59:59.
05:25:52 INFO: Directional wave and sea surface temperature measurements collected in situ by Datawell Mark 3 directional buoy located near SANTA CRUZ BASIN, CA from 2013/07/09 15:00:00 to 2014/07/14 16:59:59.
05:25:52 INFO: Directional wave and sea surface temperature measurements collected in situ by Datawell Mark 3 directional buoy located near OCEAN STATION PAPA from 2012/10/04 21:00:00 to 2015/01/01 00:59:59.
05:25:52 INFO: Directional wave and sea surface temperature measurements collected in situ by Datawell Mark 3 directional buoy located near CAMP PENDLETON NEARSHORE, CA from 2014/04/24 22:00:00 to 2014/06/06 16:59:59.
05:25:52 INFO: Directional wave and sea surface temperature measurements collected in situ by Datawell Mark 3 directional buoy located near CAMP PENDLETON NEARSHORE, CA from 2014/06/16 21:00:00 to 2015/01/23 12:59:59.
05:25:52 INFO: Directional wave and sea surface temperature measurements collected in situ by Datawell Mark 3 directional buoy located near SAN NICOLAS ISLAND, CA from 2013/04/19 17:00:00 to 2014/06/08 21:59:59.
05:25:52 INFO: Directional wave and sea surface temperature measurements collected in situ by Datawell Mark 3 directional buoy located near TORREY PINES OUTER, CA from 2014/06/10 21:00:00 to 2014/06/12 15:59:59.
05:25:52 INFO: Directional wave and sea surface temperature measurements collected in situ by Datawell Mark 3 directional buoy located near SCRIPPS NEARSHORE, CA from 2013/07/12 20:00:00 to 2015/01/07 17:59:59.
05:25:52 INFO: Directional wave and sea surface temperature measurements collected in situ by Datawell Mark 3 directional buoy located near MISSION BAY OFFSHORE, CA from 2014/04/28 21:00:00 to 2014/06/24 09:59:59.
05:25:52 INFO: Directional wave and sea surface temperature measurements collected in situ by Datawell Waverider buoys located near OCEANSIDE OFFSHORE, CA from 1997/05/19 to 2015/03/04.
05:25:52 INFO: Directional wave and sea surface temperature measurements collected in situ by Datawell Mark 3 directional buoy located near POINT LOMA SOUTH, CA from 2013/08/12 20:00:00 to 2014/09/10 07:59:59.
05:25:52 INFO: Directional wave and sea surface temperature measurements collected in situ by Datawell Waverider buoys located near MOKAPU POINT, HI from 2000/08/09 to 2014/09/10.
05:25:52 INFO: Directional wave and sea surface temperature measurements collected in situ by Datawell Waverider buoys located near TORREY PINES OUTER, CA from 2001/01/30 to 2014/06/06.
05:25:52 INFO: ROMS ESPRESSO Real-Time Operational IS4DVAR Forecast System Version 2 (NEW) 2013-present FMRC History (Best)
05:25:52 INFO: Directional wave and sea surface temperature measurements collected in situ by Datawell Waverider buoys located near SANTA MONICA BAY, CA from 2000/03/16 to 2015/02/18.
05:25:52 INFO: Directional wave and sea surface temperature measurements collected in situ by Datawell Waverider buoys located near SAN NICOLAS ISLAND, CA from 1991/09/10 to 2014/06/08.
05:25:52 INFO: Directional wave and sea surface temperature measurements collected in situ by Datawell Mark 3 directional buoy located near FERNANDINA BEACH, FL from 2013/12/17 18:00:00 to 2015/01/29 16:59:59.
05:25:52 INFO: NDBC Standard Meteorological Buoy Data
05:25:52 INFO: Directional wave and sea surface temperature measurements collected in situ by Datawell Waverider buoys located near POINT REYES, CA from 1996/12/06 to 2014/09/05.
05:25:52 INFO: HYbrid Coordinate Ocean Model (HYCOM): Global
05:25:52 INFO: National Data Buoy Center SOS
05:25:52 INFO: G1SST, 1km blended SST
05:25:52 INFO: NOAA Coral Reef Watch Operational Twice-Weekly Near-Real-Time Global 50km Satellite Coral Bleaching Monitoring Products
05:25:52 INFO: Directional wave and sea surface temperature measurements collected in situ by Datawell Mark 3 directional buoy located near ST. PETERSBURG OFFSHORE, FL from 2013/12/03 19:00:00 to 2015/02/24 15:59:59.
05:25:52 INFO: Directional wave and sea surface temperature measurements collected in situ by Datawell Mark 3 directional buoy located near MASONBORO INLET, ILM2, NC from 2014/03/14 16:00:00 to 2015/01/06 13:59:59.where the water depth is approximately
05:25:52 INFO: Directional wave and sea surface temperature measurements collected in situ by Datawell Mark 3 directional buoy located near FORT PIERCE, FL from 2013/12/05 17:00:00 to 2015/03/19 13:59:59.
05:25:52 INFO: Directional wave and sea surface temperature measurements collected in situ by Datawell Mark 3 directional buoy located near CAPE CHARLES, VA from 2013/09/11 18:00:00 to 2015/02/24 23:59:59.
05:25:52 INFO: Directional wave and sea surface temperature measurements collected in situ by Datawell Mark 3 directional buoy located near OREGON INLET, NC from 2013/07/17 17:00:00 to 2015/02/01 16:59:59.
05:25:52 INFO: Directional wave and sea surface temperature measurements collected in situ by Datawell Waverider buoys located near FERNANDINA BEACH, FL from 2006/02/09 to 2015/01/29.
05:25:52 INFO: Directional wave and sea surface temperature measurements collected in situ by Datawell Waverider buoys located near MASONBORO INLET, ILM2, NC from 2008/05/07 to 2015/01/06.
05:25:52 INFO: Directional wave and sea surface temperature measurements collected in situ by Datawell Waverider buoys located near ST. PETERSBURG OFFSHORE, FL from 2007/07/10 to 2015/02/24.
05:25:52 INFO: Directional wave and sea surface temperature measurements collected in situ by Datawell Waverider buoys located near OREGON INLET, NC from 2012/04/08 to 2015/02/01.
05:25:52 INFO: Directional wave and sea surface temperature measurements collected in situ by Datawell Waverider buoys located near FORT PIERCE, FL from 2006/09/29 to 2015/03/19.
05:25:52 INFO: Directional wave and sea surface temperature measurements collected in situ by Datawell Waverider buoys located near NEW RIVER INLET, NC from 2012/04/14 to 2014/07/11.
05:25:52 INFO: Directional wave and sea surface temperature measurements collected in situ by Datawell Mark 3 directional buoy located near NEW RIVER INLET, NC from 2014/03/09 19:00:00 to 2014/07/11 23:59:59.
05:25:52 INFO: carocoops.cap2.buoy
05:25:52 INFO: carocoops.cap2.buoy
05:25:52 INFO: carocoops.frp2.buoy
05:25:52 INFO: carocoops.frp2.buoy
05:25:52 INFO: carocoops.sun2.buoy
05:25:52 INFO: usf.c10.mcat
05:25:52 INFO: enp.bdvf1.met
05:25:52 INFO: enp.bnkf1.met
05:25:52 INFO: enp.bobf1.met
05:25:52 INFO: enp.bwsf1.met
05:25:52 INFO: enp.canf1.met
05:25:52 INFO: enp.cnbf1.met
05:25:52 INFO: enp.cwaf1.met
05:25:52 INFO: enp.dkkf1.met
05:25:52 INFO: enp.gbif1.met
05:25:52 INFO: enp.gbtf1.met
05:25:52 INFO: enp.hcef1.met
05:25:52 INFO: enp.jkyf1.met
05:25:52 INFO: enp.lbrf1.met
05:25:52 INFO: enp.lbsf1.met
05:25:52 INFO: enp.lmdf1.met
05:25:52 INFO: enp.lrif1.met
05:25:52 INFO: enp.lrkf1.met
05:25:52 INFO: enp.mukf1.met
05:25:52 INFO: enp.pkyf1.met
05:25:52 INFO: enp.tcvf1.met
05:25:52 INFO: enp.trrf1.met
05:25:52 INFO: enp.wiwf1.met
05:25:52 INFO: enp.wrbf1.met
05:25:52 INFO: enp.wwef1.met
05:25:52 INFO: fau.lobo.1
05:25:52 INFO: fldep.bingslanding.
05:25:52 INFO: fldep.stlucieinlet.
05:25:52 INFO: fldep.tolomatoriver.
05:25:52 INFO: lbhmc.2ndave.pier
05:25:52 INFO: lbhmc.apachepier.pier
05:25:52 INFO: lbhmc.cherrygrove.pier
05:25:52 INFO: sccf.fortmyers.wq
05:25:52 INFO: sccf.gulfofmexico.wq
05:25:52 INFO: sccf.redfishpass.wq
05:25:52 INFO: sccf.shellpoint.wq
05:25:52 INFO: sccf.tarponbay.wq
05:25:52 INFO: usf.c21.weatherpak
05:25:52 INFO: usf.shp.ngwlms
05:25:52 INFO: ***************************** DAP ******************************
05:25:52 INFO: http://crow.marine.usf.edu:8080/thredds/dodsC/FVCOM-Nowcast-Agg.nc.html
05:25:52 INFO: http://crow.marine.usf.edu:8080/thredds/dodsC/WFS_ROMS_NF_model/USF_Ocean_Circulation_Group_West_Florida_Shelf_Daily_ROMS_Nowcast_Forecast_Model_Data_best.ncd.html
05:25:52 INFO: http://geoport.whoi.edu/thredds/dodsC/coawst_4/use/fmrc/coawst_4_use_best.ncd.html
05:25:52 INFO: http://omgsrv1.meas.ncsu.edu:8080/thredds/dodsC/fmrc/sabgom/SABGOM_Forecast_Model_Run_Collection_best.ncd.html
05:25:52 INFO: http://oos.soest.hawaii.edu/thredds/dodsC/hioos/satellite/dhw.html
05:25:52 INFO: http://oos.soest.hawaii.edu/thredds/dodsC/pacioos/hycom/global.html
05:25:52 INFO: http://tds.marine.rutgers.edu/thredds/dodsC/roms/espresso/2013_da/his_Best/ESPRESSO_Real-Time_v2_History_Best_Available_best.ncd.html
05:25:52 INFO: http://tds.secoora.org/thredds/dodsC/carocoops.cap2.buoy.nc.html
05:25:52 INFO: http://tds.secoora.org/thredds/dodsC/carocoops.cap2.buoy_archive.nc.html
05:25:52 INFO: http://tds.secoora.org/thredds/dodsC/carocoops.frp2.buoy.nc.html
05:25:52 INFO: http://tds.secoora.org/thredds/dodsC/carocoops.frp2.buoy_archive.nc.html
05:25:52 INFO: http://tds.secoora.org/thredds/dodsC/carocoops.sun2.buoy_archive.nc.html
05:25:52 INFO: http://tds.secoora.org/thredds/dodsC/enp.bdvf1.met.nc.html
05:25:52 INFO: http://tds.secoora.org/thredds/dodsC/enp.bnkf1.met.nc.html
05:25:52 INFO: http://tds.secoora.org/thredds/dodsC/enp.bobf1.met.nc.html
05:25:52 INFO: http://tds.secoora.org/thredds/dodsC/enp.bwsf1.met.nc.html
05:25:52 INFO: http://tds.secoora.org/thredds/dodsC/enp.canf1.met.nc.html
05:25:52 INFO: http://tds.secoora.org/thredds/dodsC/enp.cnbf1.met.nc.html
05:25:52 INFO: http://tds.secoora.org/thredds/dodsC/enp.cwaf1.met.nc.html
05:25:52 INFO: http://tds.secoora.org/thredds/dodsC/enp.dkkf1.met.nc.html
05:25:52 INFO: http://tds.secoora.org/thredds/dodsC/enp.gbif1.met.nc.html
05:25:52 INFO: http://tds.secoora.org/thredds/dodsC/enp.gbtf1.met.nc.html
05:25:52 INFO: http://tds.secoora.org/thredds/dodsC/enp.hcef1.met.nc.html
05:25:52 INFO: http://tds.secoora.org/thredds/dodsC/enp.jkyf1.met.nc.html
05:25:52 INFO: http://tds.secoora.org/thredds/dodsC/enp.lbrf1.met.nc.html
05:25:52 INFO: http://tds.secoora.org/thredds/dodsC/enp.lbsf1.met.nc.html
05:25:52 INFO: http://tds.secoora.org/thredds/dodsC/enp.lmdf1.met.nc.html
05:25:52 INFO: http://tds.secoora.org/thredds/dodsC/enp.lrif1.met.nc.html
05:25:52 INFO: http://tds.secoora.org/thredds/dodsC/enp.lrkf1.met.nc.html
05:25:52 INFO: http://tds.secoora.org/thredds/dodsC/enp.mukf1.met.nc.html
05:25:52 INFO: http://tds.secoora.org/thredds/dodsC/enp.pkyf1.met.nc.html
05:25:52 INFO: http://tds.secoora.org/thredds/dodsC/enp.tcvf1.met.nc.html
05:25:52 INFO: http://tds.secoora.org/thredds/dodsC/enp.trrf1.met.nc.html
05:25:52 INFO: http://tds.secoora.org/thredds/dodsC/enp.wiwf1.met.nc.html
05:25:52 INFO: http://tds.secoora.org/thredds/dodsC/enp.wrbf1.met.nc.html
05:25:52 INFO: http://tds.secoora.org/thredds/dodsC/enp.wwef1.met.nc.html
05:25:52 INFO: http://tds.secoora.org/thredds/dodsC/fau.lobo.1.nc.html
05:25:52 INFO: http://tds.secoora.org/thredds/dodsC/fldep.bingslanding..nc.html
05:25:52 INFO: http://tds.secoora.org/thredds/dodsC/fldep.stlucieinlet..nc.html
05:25:52 INFO: http://tds.secoora.org/thredds/dodsC/fldep.tolomatoriver..nc.html
05:25:52 INFO: http://tds.secoora.org/thredds/dodsC/lbhmc.2ndave.pier.nc.html
05:25:52 INFO: http://tds.secoora.org/thredds/dodsC/lbhmc.apachepier.pier.nc.html
05:25:52 INFO: http://tds.secoora.org/thredds/dodsC/lbhmc.cherrygrove.pier.nc.html
05:25:52 INFO: http://tds.secoora.org/thredds/dodsC/sccf.fortmyers.wq.nc.html
05:25:52 INFO: http://tds.secoora.org/thredds/dodsC/sccf.gulfofmexico.wq.nc.html
05:25:52 INFO: http://tds.secoora.org/thredds/dodsC/sccf.redfishpass.wq.nc.html
05:25:52 INFO: http://tds.secoora.org/thredds/dodsC/sccf.shellpoint.wq.nc.html
05:25:52 INFO: http://tds.secoora.org/thredds/dodsC/sccf.tarponbay.wq.nc.html
05:25:52 INFO: http://tds.secoora.org/thredds/dodsC/usf.c10.mcat.nc.html
05:25:52 INFO: http://tds.secoora.org/thredds/dodsC/usf.c21.weatherpak.nc.html
05:25:52 INFO: http://tds.secoora.org/thredds/dodsC/usf.shp.ngwlms.nc.html
05:25:52 INFO: http://thredds.axiomalaska.com/thredds/dodsC/G1_SST_GLOBAL.nc.html
05:25:52 INFO: http://thredds.cdip.ucsd.edu/thredds/dodsC/cdip/archive/028p1/028p1_d16.nc.html
05:25:52 INFO: http://thredds.cdip.ucsd.edu/thredds/dodsC/cdip/archive/028p1/028p1_historic.nc.html
05:25:52 INFO: http://thredds.cdip.ucsd.edu/thredds/dodsC/cdip/archive/029p1/029p1_d19.nc.html
05:25:52 INFO: http://thredds.cdip.ucsd.edu/thredds/dodsC/cdip/archive/029p1/029p1_historic.nc.html
05:25:52 INFO: http://thredds.cdip.ucsd.edu/thredds/dodsC/cdip/archive/036p1/036p1_d40.nc.html
05:25:52 INFO: http://thredds.cdip.ucsd.edu/thredds/dodsC/cdip/archive/043p1/043p1_d16.nc.html
05:25:52 INFO: http://thredds.cdip.ucsd.edu/thredds/dodsC/cdip/archive/043p1/043p1_d17.nc.html
05:25:52 INFO: http://thredds.cdip.ucsd.edu/thredds/dodsC/cdip/archive/045p1/045p1_historic.nc.html
05:25:52 INFO: http://thredds.cdip.ucsd.edu/thredds/dodsC/cdip/archive/067p1/067p1_d22.nc.html
05:25:52 INFO: http://thredds.cdip.ucsd.edu/thredds/dodsC/cdip/archive/067p1/067p1_historic.nc.html
05:25:52 INFO: http://thredds.cdip.ucsd.edu/thredds/dodsC/cdip/archive/076p1/076p1_d27.nc.html
05:25:52 INFO: http://thredds.cdip.ucsd.edu/thredds/dodsC/cdip/archive/093p1/093p1_d40.nc.html
05:25:52 INFO: http://thredds.cdip.ucsd.edu/thredds/dodsC/cdip/archive/098p1/098p1_historic.nc.html
05:25:52 INFO: http://thredds.cdip.ucsd.edu/thredds/dodsC/cdip/archive/100p1/100p1_d13.nc.html
05:25:52 INFO: http://thredds.cdip.ucsd.edu/thredds/dodsC/cdip/archive/100p1/100p1_historic.nc.html
05:25:52 INFO: http://thredds.cdip.ucsd.edu/thredds/dodsC/cdip/archive/132p1/132p1_d11.nc.html
05:25:52 INFO: http://thredds.cdip.ucsd.edu/thredds/dodsC/cdip/archive/132p1/132p1_historic.nc.html
05:25:52 INFO: http://thredds.cdip.ucsd.edu/thredds/dodsC/cdip/archive/134p1/134p1_d09.nc.html
05:25:52 INFO: http://thredds.cdip.ucsd.edu/thredds/dodsC/cdip/archive/134p1/134p1_historic.nc.html
05:25:52 INFO: http://thredds.cdip.ucsd.edu/thredds/dodsC/cdip/archive/142p1/142p1_d14.nc.html
05:25:52 INFO: http://thredds.cdip.ucsd.edu/thredds/dodsC/cdip/archive/142p1/142p1_historic.nc.html
05:25:52 INFO: http://thredds.cdip.ucsd.edu/thredds/dodsC/cdip/archive/144p1/144p1_d07.nc.html
05:25:52 INFO: http://thredds.cdip.ucsd.edu/thredds/dodsC/cdip/archive/144p1/144p1_historic.nc.html
05:25:52 INFO: http://thredds.cdip.ucsd.edu/thredds/dodsC/cdip/archive/150p1/150p1_d07.nc.html
05:25:52 INFO: http://thredds.cdip.ucsd.edu/thredds/dodsC/cdip/archive/150p1/150p1_historic.nc.html
05:25:52 INFO: http://thredds.cdip.ucsd.edu/thredds/dodsC/cdip/archive/156p1/156p1_d07.nc.html
05:25:52 INFO: http://thredds.cdip.ucsd.edu/thredds/dodsC/cdip/archive/162p1/162p1_d04.nc.html
05:25:52 INFO: http://thredds.cdip.ucsd.edu/thredds/dodsC/cdip/archive/166p1/166p1_d02.nc.html
05:25:52 INFO: http://thredds.cdip.ucsd.edu/thredds/dodsC/cdip/archive/168p1/168p1_d05.nc.html
05:25:52 INFO: http://thredds.cdip.ucsd.edu/thredds/dodsC/cdip/archive/179p1/179p1_d04.nc.html
05:25:52 INFO: http://thredds.cdip.ucsd.edu/thredds/dodsC/cdip/archive/185p1/185p1_d02.nc.html
05:25:52 INFO: http://thredds.cdip.ucsd.edu/thredds/dodsC/cdip/archive/185p1/185p1_d03.nc.html
05:25:52 INFO: http://thredds.cdip.ucsd.edu/thredds/dodsC/cdip/archive/186p1/186p1_d03.nc.html
05:25:52 INFO: http://thredds.cdip.ucsd.edu/thredds/dodsC/cdip/archive/190p1/190p1_d02.nc.html
05:25:52 INFO: http://thredds.cdip.ucsd.edu/thredds/dodsC/cdip/archive/190p1/190p1_historic.nc.html
05:25:52 INFO: http://thredds.cdip.ucsd.edu/thredds/dodsC/cdip/archive/191p1/191p1_d12.nc.html
05:25:52 INFO: http://thredds.cdip.ucsd.edu/thredds/dodsC/cdip/archive/192p1/192p1_d02.nc.html
05:25:52 INFO: http://thredds.cdip.ucsd.edu/thredds/dodsC/cdip/archive/192p1/192p1_historic.nc.html
05:25:52 INFO: http://thredds.cdip.ucsd.edu/thredds/dodsC/cdip/archive/201p1/201p1_d02.nc.html
05:25:52 INFO: http://thredds.cdip.ucsd.edu/thredds/dodsC/cdip/archive/203p1/203p1_d01.nc.html
05:25:52 INFO: ***************************** SOS ******************************
05:25:52 INFO: http://sdf.ndbc.noaa.gov/sos/server.php?service=SOS&request=GetCapabilities&acceptVersions=1.0.0
05:25:52 INFO: http://tds.secoora.org/thredds/sos/carocoops.cap2.buoy.nc?service=SOS&version=1.0.0&request=GetCapabilities
05:25:52 INFO: http://tds.secoora.org/thredds/sos/carocoops.cap2.buoy_archive.nc?service=SOS&version=1.0.0&request=GetCapabilities
05:25:52 INFO: http://tds.secoora.org/thredds/sos/carocoops.frp2.buoy.nc?service=SOS&version=1.0.0&request=GetCapabilities
05:25:52 INFO: http://tds.secoora.org/thredds/sos/carocoops.frp2.buoy_archive.nc?service=SOS&version=1.0.0&request=GetCapabilities
05:25:52 INFO: http://tds.secoora.org/thredds/sos/carocoops.sun2.buoy_archive.nc?service=SOS&version=1.0.0&request=GetCapabilities
05:25:52 INFO: http://tds.secoora.org/thredds/sos/enp.bdvf1.met.nc?service=SOS&version=1.0.0&request=GetCapabilities
05:25:52 INFO: http://tds.secoora.org/thredds/sos/enp.bnkf1.met.nc?service=SOS&version=1.0.0&request=GetCapabilities
05:25:52 INFO: http://tds.secoora.org/thredds/sos/enp.bobf1.met.nc?service=SOS&version=1.0.0&request=GetCapabilities
05:25:52 INFO: http://tds.secoora.org/thredds/sos/enp.bwsf1.met.nc?service=SOS&version=1.0.0&request=GetCapabilities
05:25:52 INFO: http://tds.secoora.org/thredds/sos/enp.canf1.met.nc?service=SOS&version=1.0.0&request=GetCapabilities
05:25:52 INFO: http://tds.secoora.org/thredds/sos/enp.cnbf1.met.nc?service=SOS&version=1.0.0&request=GetCapabilities
05:25:52 INFO: http://tds.secoora.org/thredds/sos/enp.cwaf1.met.nc?service=SOS&version=1.0.0&request=GetCapabilities
05:25:52 INFO: http://tds.secoora.org/thredds/sos/enp.dkkf1.met.nc?service=SOS&version=1.0.0&request=GetCapabilities
05:25:52 INFO: http://tds.secoora.org/thredds/sos/enp.gbif1.met.nc?service=SOS&version=1.0.0&request=GetCapabilities
05:25:52 INFO: http://tds.secoora.org/thredds/sos/enp.gbtf1.met.nc?service=SOS&version=1.0.0&request=GetCapabilities
05:25:52 INFO: http://tds.secoora.org/thredds/sos/enp.hcef1.met.nc?service=SOS&version=1.0.0&request=GetCapabilities
05:25:52 INFO: http://tds.secoora.org/thredds/sos/enp.jkyf1.met.nc?service=SOS&version=1.0.0&request=GetCapabilities
05:25:52 INFO: http://tds.secoora.org/thredds/sos/enp.lbrf1.met.nc?service=SOS&version=1.0.0&request=GetCapabilities
05:25:52 INFO: http://tds.secoora.org/thredds/sos/enp.lbsf1.met.nc?service=SOS&version=1.0.0&request=GetCapabilities
05:25:52 INFO: http://tds.secoora.org/thredds/sos/enp.lmdf1.met.nc?service=SOS&version=1.0.0&request=GetCapabilities
05:25:52 INFO: http://tds.secoora.org/thredds/sos/enp.lrif1.met.nc?service=SOS&version=1.0.0&request=GetCapabilities
05:25:52 INFO: http://tds.secoora.org/thredds/sos/enp.lrkf1.met.nc?service=SOS&version=1.0.0&request=GetCapabilities
05:25:52 INFO: http://tds.secoora.org/thredds/sos/enp.mukf1.met.nc?service=SOS&version=1.0.0&request=GetCapabilities
05:25:52 INFO: http://tds.secoora.org/thredds/sos/enp.pkyf1.met.nc?service=SOS&version=1.0.0&request=GetCapabilities
05:25:52 INFO: http://tds.secoora.org/thredds/sos/enp.tcvf1.met.nc?service=SOS&version=1.0.0&request=GetCapabilities
05:25:52 INFO: http://tds.secoora.org/thredds/sos/enp.trrf1.met.nc?service=SOS&version=1.0.0&request=GetCapabilities
05:25:52 INFO: http://tds.secoora.org/thredds/sos/enp.wiwf1.met.nc?service=SOS&version=1.0.0&request=GetCapabilities
05:25:52 INFO: http://tds.secoora.org/thredds/sos/enp.wrbf1.met.nc?service=SOS&version=1.0.0&request=GetCapabilities
05:25:52 INFO: http://tds.secoora.org/thredds/sos/enp.wwef1.met.nc?service=SOS&version=1.0.0&request=GetCapabilities
05:25:52 INFO: http://tds.secoora.org/thredds/sos/fau.lobo.1.nc?service=SOS&version=1.0.0&request=GetCapabilities
05:25:52 INFO: http://tds.secoora.org/thredds/sos/fldep.bingslanding..nc?service=SOS&version=1.0.0&request=GetCapabilities
05:25:52 INFO: http://tds.secoora.org/thredds/sos/fldep.stlucieinlet..nc?service=SOS&version=1.0.0&request=GetCapabilities
05:25:52 INFO: http://tds.secoora.org/thredds/sos/fldep.tolomatoriver..nc?service=SOS&version=1.0.0&request=GetCapabilities
05:25:52 INFO: http://tds.secoora.org/thredds/sos/lbhmc.2ndave.pier.nc?service=SOS&version=1.0.0&request=GetCapabilities
05:25:52 INFO: http://tds.secoora.org/thredds/sos/lbhmc.apachepier.pier.nc?service=SOS&version=1.0.0&request=GetCapabilities
05:25:52 INFO: http://tds.secoora.org/thredds/sos/lbhmc.cherrygrove.pier.nc?service=SOS&version=1.0.0&request=GetCapabilities
05:25:52 INFO: http://tds.secoora.org/thredds/sos/sccf.fortmyers.wq.nc?service=SOS&version=1.0.0&request=GetCapabilities
05:25:52 INFO: http://tds.secoora.org/thredds/sos/sccf.gulfofmexico.wq.nc?service=SOS&version=1.0.0&request=GetCapabilities
05:25:52 INFO: http://tds.secoora.org/thredds/sos/sccf.redfishpass.wq.nc?service=SOS&version=1.0.0&request=GetCapabilities
05:25:52 INFO: http://tds.secoora.org/thredds/sos/sccf.shellpoint.wq.nc?service=SOS&version=1.0.0&request=GetCapabilities
05:25:52 INFO: http://tds.secoora.org/thredds/sos/sccf.tarponbay.wq.nc?service=SOS&version=1.0.0&request=GetCapabilities
05:25:52 INFO: http://tds.secoora.org/thredds/sos/usf.c10.mcat.nc?service=SOS&version=1.0.0&request=GetCapabilities
05:25:52 INFO: http://tds.secoora.org/thredds/sos/usf.c21.weatherpak.nc?service=SOS&version=1.0.0&request=GetCapabilities
05:25:52 INFO: http://tds.secoora.org/thredds/sos/usf.shp.ngwlms.nc?service=SOS&version=1.0.0&request=GetCapabilities
05:25:52 INFO: http://thredds.cdip.ucsd.edu/thredds/sos/cdip/archive/028p1/028p1_d16.nc?service=SOS&version=1.0.0&request=GetCapabilities
05:25:52 INFO: http://thredds.cdip.ucsd.edu/thredds/sos/cdip/archive/028p1/028p1_historic.nc?service=SOS&version=1.0.0&request=GetCapabilities
05:25:52 INFO: http://thredds.cdip.ucsd.edu/thredds/sos/cdip/archive/029p1/029p1_d19.nc?service=SOS&version=1.0.0&request=GetCapabilities
05:25:52 INFO: http://thredds.cdip.ucsd.edu/thredds/sos/cdip/archive/029p1/029p1_historic.nc?service=SOS&version=1.0.0&request=GetCapabilities
05:25:52 INFO: http://thredds.cdip.ucsd.edu/thredds/sos/cdip/archive/036p1/036p1_d40.nc?service=SOS&version=1.0.0&request=GetCapabilities
05:25:52 INFO: http://thredds.cdip.ucsd.edu/thredds/sos/cdip/archive/043p1/043p1_d16.nc?service=SOS&version=1.0.0&request=GetCapabilities
05:25:52 INFO: http://thredds.cdip.ucsd.edu/thredds/sos/cdip/archive/043p1/043p1_d17.nc?service=SOS&version=1.0.0&request=GetCapabilities
05:25:52 INFO: http://thredds.cdip.ucsd.edu/thredds/sos/cdip/archive/045p1/045p1_historic.nc?service=SOS&version=1.0.0&request=GetCapabilities
05:25:52 INFO: http://thredds.cdip.ucsd.edu/thredds/sos/cdip/archive/067p1/067p1_d22.nc?service=SOS&version=1.0.0&request=GetCapabilities
05:25:52 INFO: http://thredds.cdip.ucsd.edu/thredds/sos/cdip/archive/067p1/067p1_historic.nc?service=SOS&version=1.0.0&request=GetCapabilities
05:25:52 INFO: http://thredds.cdip.ucsd.edu/thredds/sos/cdip/archive/076p1/076p1_d27.nc?service=SOS&version=1.0.0&request=GetCapabilities
05:25:52 INFO: http://thredds.cdip.ucsd.edu/thredds/sos/cdip/archive/093p1/093p1_d40.nc?service=SOS&version=1.0.0&request=GetCapabilities
05:25:52 INFO: http://thredds.cdip.ucsd.edu/thredds/sos/cdip/archive/098p1/098p1_historic.nc?service=SOS&version=1.0.0&request=GetCapabilities
05:25:52 INFO: http://thredds.cdip.ucsd.edu/thredds/sos/cdip/archive/100p1/100p1_d13.nc?service=SOS&version=1.0.0&request=GetCapabilities
05:25:52 INFO: http://thredds.cdip.ucsd.edu/thredds/sos/cdip/archive/100p1/100p1_historic.nc?service=SOS&version=1.0.0&request=GetCapabilities
05:25:52 INFO: http://thredds.cdip.ucsd.edu/thredds/sos/cdip/archive/132p1/132p1_d11.nc?service=SOS&version=1.0.0&request=GetCapabilities
05:25:52 INFO: http://thredds.cdip.ucsd.edu/thredds/sos/cdip/archive/132p1/132p1_historic.nc?service=SOS&version=1.0.0&request=GetCapabilities
05:25:52 INFO: http://thredds.cdip.ucsd.edu/thredds/sos/cdip/archive/134p1/134p1_d09.nc?service=SOS&version=1.0.0&request=GetCapabilities
05:25:52 INFO: http://thredds.cdip.ucsd.edu/thredds/sos/cdip/archive/134p1/134p1_historic.nc?service=SOS&version=1.0.0&request=GetCapabilities
05:25:52 INFO: http://thredds.cdip.ucsd.edu/thredds/sos/cdip/archive/142p1/142p1_d14.nc?service=SOS&version=1.0.0&request=GetCapabilities
05:25:52 INFO: http://thredds.cdip.ucsd.edu/thredds/sos/cdip/archive/142p1/142p1_historic.nc?service=SOS&version=1.0.0&request=GetCapabilities
05:25:52 INFO: http://thredds.cdip.ucsd.edu/thredds/sos/cdip/archive/144p1/144p1_d07.nc?service=SOS&version=1.0.0&request=GetCapabilities
05:25:52 INFO: http://thredds.cdip.ucsd.edu/thredds/sos/cdip/archive/144p1/144p1_historic.nc?service=SOS&version=1.0.0&request=GetCapabilities
05:25:52 INFO: http://thredds.cdip.ucsd.edu/thredds/sos/cdip/archive/150p1/150p1_d07.nc?service=SOS&version=1.0.0&request=GetCapabilities
05:25:52 INFO: http://thredds.cdip.ucsd.edu/thredds/sos/cdip/archive/150p1/150p1_historic.nc?service=SOS&version=1.0.0&request=GetCapabilities
05:25:52 INFO: http://thredds.cdip.ucsd.edu/thredds/sos/cdip/archive/156p1/156p1_d07.nc?service=SOS&version=1.0.0&request=GetCapabilities
05:25:52 INFO: http://thredds.cdip.ucsd.edu/thredds/sos/cdip/archive/162p1/162p1_d04.nc?service=SOS&version=1.0.0&request=GetCapabilities
05:25:52 INFO: http://thredds.cdip.ucsd.edu/thredds/sos/cdip/archive/166p1/166p1_d02.nc?service=SOS&version=1.0.0&request=GetCapabilities
05:25:52 INFO: http://thredds.cdip.ucsd.edu/thredds/sos/cdip/archive/168p1/168p1_d05.nc?service=SOS&version=1.0.0&request=GetCapabilities
05:25:52 INFO: http://thredds.cdip.ucsd.edu/thredds/sos/cdip/archive/179p1/179p1_d04.nc?service=SOS&version=1.0.0&request=GetCapabilities
05:25:52 INFO: http://thredds.cdip.ucsd.edu/thredds/sos/cdip/archive/185p1/185p1_d02.nc?service=SOS&version=1.0.0&request=GetCapabilities
05:25:52 INFO: http://thredds.cdip.ucsd.edu/thredds/sos/cdip/archive/185p1/185p1_d03.nc?service=SOS&version=1.0.0&request=GetCapabilities
05:25:52 INFO: http://thredds.cdip.ucsd.edu/thredds/sos/cdip/archive/186p1/186p1_d03.nc?service=SOS&version=1.0.0&request=GetCapabilities
05:25:52 INFO: http://thredds.cdip.ucsd.edu/thredds/sos/cdip/archive/190p1/190p1_d02.nc?service=SOS&version=1.0.0&request=GetCapabilities
05:25:52 INFO: http://thredds.cdip.ucsd.edu/thredds/sos/cdip/archive/190p1/190p1_historic.nc?service=SOS&version=1.0.0&request=GetCapabilities
05:25:52 INFO: http://thredds.cdip.ucsd.edu/thredds/sos/cdip/archive/191p1/191p1_d12.nc?service=SOS&version=1.0.0&request=GetCapabilities
05:25:52 INFO: http://thredds.cdip.ucsd.edu/thredds/sos/cdip/archive/192p1/192p1_d02.nc?service=SOS&version=1.0.0&request=GetCapabilities
05:25:52 INFO: http://thredds.cdip.ucsd.edu/thredds/sos/cdip/archive/192p1/192p1_historic.nc?service=SOS&version=1.0.0&request=GetCapabilities
05:25:52 INFO: http://thredds.cdip.ucsd.edu/thredds/sos/cdip/archive/201p1/201p1_d02.nc?service=SOS&version=1.0.0&request=GetCapabilities
05:25:52 INFO: http://thredds.cdip.ucsd.edu/thredds/sos/cdip/archive/203p1/203p1_d01.nc?service=SOS&version=1.0.0&request=GetCapabilities
05:25:53 WARNING: SABGOM_ARCHIVE not in the NGDC csw
05:25:53 WARNING: USEAST not in the NGDC csw
05:25:53 WARNING: USF_SWAN not in the NGDC csw
05:26:00 WARNING: Cannot get cube for: http://129.252.139.124/thredds/dodsC/usf.nfb.ngwlms.nc
Cannot find ['sea_water_temperature', 'sea_surface_temperature', 'sea_water_potential_temperature', 'equivalent_potential_temperature', 'sea_water_conservative_temperature', 'pseudo_equivalent_potential_temperature'] in http://129.252.139.124/thredds/dodsC/usf.nfb.ngwlms.nc.
05:26:04 WARNING: Cannot get cube for: http://129.252.139.124/thredds/dodsC/usf.tas.ngwlms.nc
Cannot find ['sea_water_temperature', 'sea_surface_temperature', 'sea_water_potential_temperature', 'equivalent_potential_temperature', 'sea_water_conservative_temperature', 'pseudo_equivalent_potential_temperature'] in http://129.252.139.124/thredds/dodsC/usf.tas.ngwlms.nc.
05:26:07 WARNING: Cannot get cube for: http://129.252.139.124/thredds/dodsC/usf.apk.ngwlms.nc
Cannot find ['sea_water_temperature', 'sea_surface_temperature', 'sea_water_potential_temperature', 'equivalent_potential_temperature', 'sea_water_conservative_temperature', 'pseudo_equivalent_potential_temperature'] in http://129.252.139.124/thredds/dodsC/usf.apk.ngwlms.nc.
05:26:11 WARNING: Cannot get cube for: http://129.252.139.124/thredds/dodsC/usf.c21.weatherpak.nc
Cannot find ['sea_water_temperature', 'sea_surface_temperature', 'sea_water_potential_temperature', 'equivalent_potential_temperature', 'sea_water_conservative_temperature', 'pseudo_equivalent_potential_temperature'] in http://129.252.139.124/thredds/dodsC/usf.c21.weatherpak.nc.
05:26:19 WARNING: Cannot get cube for: http://129.252.139.124/thredds/dodsC/usf.bcp.ngwlms.nc
Cannot find ['sea_water_temperature', 'sea_surface_temperature', 'sea_water_potential_temperature', 'equivalent_potential_temperature', 'sea_water_conservative_temperature', 'pseudo_equivalent_potential_temperature'] in http://129.252.139.124/thredds/dodsC/usf.bcp.ngwlms.nc.
05:26:23 WARNING: Cannot get cube for: http://129.252.139.124/thredds/dodsC/usf.fhp.ngwlms.nc
Cannot find ['sea_water_temperature', 'sea_surface_temperature', 'sea_water_potential_temperature', 'equivalent_potential_temperature', 'sea_water_conservative_temperature', 'pseudo_equivalent_potential_temperature'] in http://129.252.139.124/thredds/dodsC/usf.fhp.ngwlms.nc.
05:26:26 WARNING: Cannot get cube for: http://129.252.139.124/thredds/dodsC/usf.c10.mcat.nc
istart must be different from istop! Got istart 48233 and  istop 48233
05:26:31 WARNING: Cannot get cube for: http://129.252.139.124/thredds/dodsC/c10_salinity_water_temp.nc
Cannot find ['sea_water_temperature', 'sea_surface_temperature', 'sea_water_potential_temperature', 'equivalent_potential_temperature', 'sea_water_conservative_temperature', 'pseudo_equivalent_potential_temperature'] in http://129.252.139.124/thredds/dodsC/c10_salinity_water_temp.nc.
05:26:37 WARNING: Cannot get cube for: http://129.252.139.124/thredds/dodsC/QC_C10_Temp_full.nc
Cannot find ['sea_water_temperature', 'sea_surface_temperature', 'sea_water_potential_temperature', 'equivalent_potential_temperature', 'sea_water_conservative_temperature', 'pseudo_equivalent_potential_temperature'] in http://129.252.139.124/thredds/dodsC/QC_C10_Temp_full.nc.
05:26:42 WARNING: Cannot get cube for: http://129.252.139.124/thredds/dodsC/QC_C10_Sal_full.nc
Cannot find ['sea_water_temperature', 'sea_surface_temperature', 'sea_water_potential_temperature', 'equivalent_potential_temperature', 'sea_water_conservative_temperature', 'pseudo_equivalent_potential_temperature'] in http://129.252.139.124/thredds/dodsC/QC_C10_Sal_full.nc.
05:26:45 WARNING: Cannot get cube for: http://129.252.139.124/thredds/dodsC/usf.c12.mcat.nc
istart must be different from istop! Got istart 18711 and  istop 18711
05:26:48 WARNING: Cannot get cube for: http://129.252.139.124/thredds/dodsC/usf.c13.mcat.nc
istart must be different from istop! Got istart 18099 and  istop 18099
05:26:51 WARNING: Cannot get cube for: http://129.252.139.124/thredds/dodsC/usf.c10.mcat_2011.nc
istart must be different from istop! Got istart 26303 and  istop 26303
05:26:54 WARNING: Cannot get cube for: http://129.252.139.124/thredds/dodsC/usf.c12.mcat_2011.nc
istart must be different from istop! Got istart 26303 and  istop 26303
05:26:57 WARNING: Cannot get cube for: http://129.252.139.124/thredds/dodsC/usf.c13.mcat_2011.nc
istart must be different from istop! Got istart 26303 and  istop 26303
05:27:05 WARNING: Cannot get cube for: http://129.252.139.124/thredds/dodsC/carocoops.frp2.buoy.nc
Cannot find ['sea_water_temperature', 'sea_surface_temperature', 'sea_water_potential_temperature', 'equivalent_potential_temperature', 'sea_water_conservative_temperature', 'pseudo_equivalent_potential_temperature'] in http://129.252.139.124/thredds/dodsC/carocoops.frp2.buoy.nc.
05:27:09 WARNING: Cannot get cube for: http://129.252.139.124/thredds/dodsC/carocoops.cap2.buoy.nc
Cannot find ['sea_water_temperature', 'sea_surface_temperature', 'sea_water_potential_temperature', 'equivalent_potential_temperature', 'sea_water_conservative_temperature', 'pseudo_equivalent_potential_temperature'] in http://129.252.139.124/thredds/dodsC/carocoops.cap2.buoy.nc.
05:27:21 WARNING: Cannot get cube for: http://129.252.139.124/thredds/dodsC/cormp.ilm1.buoy.nc
istart must be different from istop! Got istart 1443 and  istop 1443
05:27:25 WARNING: Cannot get cube for: http://129.252.139.124/thredds/dodsC/cormp.lej3.buoy.nc
istart must be different from istop! Got istart 91490 and  istop 91490
05:27:52 WARNING: Cannot get cube for: http://129.252.139.124/thredds/dodsC/fldep.poncedeleonsouth..nc
Cannot find ['sea_water_temperature', 'sea_surface_temperature', 'sea_water_potential_temperature', 'equivalent_potential_temperature', 'sea_water_conservative_temperature', 'pseudo_equivalent_potential_temperature'] in http://129.252.139.124/thredds/dodsC/fldep.poncedeleonsouth..nc.
05:27:58 WARNING: Cannot get cube for: http://129.252.139.124/thredds/dodsC/fldep.redbaypoint..nc
Cannot find ['sea_water_temperature', 'sea_surface_temperature', 'sea_water_potential_temperature', 'equivalent_potential_temperature', 'sea_water_conservative_temperature', 'pseudo_equivalent_potential_temperature'] in http://129.252.139.124/thredds/dodsC/fldep.redbaypoint..nc.
05:28:07 WARNING: Cannot get cube for: http://129.252.139.124/thredds/dodsC/fldep.naplesbay..nc
Cannot find ['sea_water_temperature', 'sea_surface_temperature', 'sea_water_potential_temperature', 'equivalent_potential_temperature', 'sea_water_conservative_temperature', 'pseudo_equivalent_potential_temperature'] in http://129.252.139.124/thredds/dodsC/fldep.naplesbay..nc.
05:28:13 WARNING: Cannot get cube for: http://129.252.139.124/thredds/dodsC/fldep.gordonriverinlet..nc
Cannot find ['sea_water_temperature', 'sea_surface_temperature', 'sea_water_potential_temperature', 'equivalent_potential_temperature', 'sea_water_conservative_temperature', 'pseudo_equivalent_potential_temperature'] in http://129.252.139.124/thredds/dodsC/fldep.gordonriverinlet..nc.
05:28:19 WARNING: Cannot get cube for: http://129.252.139.124/thredds/dodsC/fldep.melbourne..nc
Cannot find ['sea_water_temperature', 'sea_surface_temperature', 'sea_water_potential_temperature', 'equivalent_potential_temperature', 'sea_water_conservative_temperature', 'pseudo_equivalent_potential_temperature'] in http://129.252.139.124/thredds/dodsC/fldep.melbourne..nc.
05:28:23 WARNING: Cannot get cube for: http://129.252.139.124/thredds/dodsC/fldep.binneydock..nc
Cannot find ['sea_water_temperature', 'sea_surface_temperature', 'sea_water_potential_temperature', 'equivalent_potential_temperature', 'sea_water_conservative_temperature', 'pseudo_equivalent_potential_temperature'] in http://129.252.139.124/thredds/dodsC/fldep.binneydock..nc.
05:28:27 WARNING: Cannot get cube for: http://129.252.139.124/thredds/dodsC/fldep.verobeach..nc
Cannot find ['sea_water_temperature', 'sea_surface_temperature', 'sea_water_potential_temperature', 'equivalent_potential_temperature', 'sea_water_conservative_temperature', 'pseudo_equivalent_potential_temperature'] in http://129.252.139.124/thredds/dodsC/fldep.verobeach..nc.
05:29:34 WARNING: Cannot get cube for: http://129.252.139.124/thredds/dodsC/enp.ppta1.met.nc
Cannot find ['sea_water_temperature', 'sea_surface_temperature', 'sea_water_potential_temperature', 'equivalent_potential_temperature', 'sea_water_conservative_temperature', 'pseudo_equivalent_potential_temperature'] in http://129.252.139.124/thredds/dodsC/enp.ppta1.met.nc.
05:30:32 INFO: ********************* Collector offerings **********************
05:30:32 INFO: NOAA.NOS.CO-OPS SOS: 1037 offerings
05:30:33 INFO: SOS URL request: http://opendap.co-ops.nos.noaa.gov/ioos-dif-sos/SOS?eventTime=2014-06-30T12%3A00%3A00Z&service=SOS&offering=urn%3Aioos%3Anetwork%3ANOAA.NOS.CO-OPS%3AMetActive&request=GetObservation&version=1.0.0&responseFormat=text%2Fcsv&featureOfInterest=BBOX%3A-87.4%2C24.25%2C-74.7%2C36.7&observedProperty=sea_water_temperature
05:34:51 INFO: ************************* Observations *************************
05:34:51 INFO: **** Downloading to file 2014-07-07/2014-07-07-OBS_DATA.nc *****
05:36:32 INFO: ********************* SECOORA Observations *********************
05:36:32 INFO:  Downloading to file 2014-07-07/2014-07-07-SECOORA_OBS_DATA.nc *
05:36:32 INFO: **************************** Models ****************************
05:36:32 INFO: 
[Reading url 1/95]: http://crow.marine.usf.edu:8080/thredds/dodsC/FVCOM-Nowcast-Agg.nc
05:41:36 WARNING: Cannot get cube for: http://crow.marine.usf.edu:8080/thredds/dodsC/FVCOM-Nowcast-Agg.nc
Timed out!
05:41:36 INFO: 
[Reading url 2/95]: http://crow.marine.usf.edu:8080/thredds/dodsC/WFS_ROMS_NF_model/USF_Ocean_Circulation_Group_West_Florida_Shelf_Daily_ROMS_Nowcast_Forecast_Model_Data_best.ncd
05:41:43 INFO: 
[Reading url 3/95]: http://geoport.whoi.edu/thredds/dodsC/coawst_4/use/fmrc/coawst_4_use_best.ncd
05:42:14 INFO: 
[Reading url 4/95]: http://omgarch1.meas.ncsu.edu:8080/thredds/dodsC/fmrc/sabgom/SABGOM_Forecast_Model_Run_Collection_best.ncd
05:42:33 INFO: 
[Reading url 5/95]: http://oos.soest.hawaii.edu/thredds/dodsC/hioos/satellite/dhw
05:42:39 INFO: 
[Reading url 6/95]: http://oos.soest.hawaii.edu/thredds/dodsC/pacioos/hycom/global
05:42:46 INFO: 
[Reading url 7/95]: http://tds.marine.rutgers.edu/thredds/dodsC/roms/espresso/2013_da/his_Best/ESPRESSO_Real-Time_v2_History_Best_Available_best.ncd
05:42:59 INFO: 
[Reading url 8/95]: http://tds.secoora.org/thredds/dodsC/carocoops.cap2.buoy.nc
05:43:03 WARNING: Cannot get cube for: http://tds.secoora.org/thredds/dodsC/carocoops.cap2.buoy.nc
Cannot find ['sea_water_temperature', 'sea_surface_temperature', 'sea_water_potential_temperature', 'equivalent_potential_temperature', 'sea_water_conservative_temperature', 'pseudo_equivalent_potential_temperature'] in http://tds.secoora.org/thredds/dodsC/carocoops.cap2.buoy.nc.
05:43:03 INFO: 
[Reading url 9/95]: http://tds.secoora.org/thredds/dodsC/carocoops.cap2.buoy_archive.nc
05:43:06 WARNING: [Not model data]: http://tds.secoora.org/thredds/dodsC/carocoops.cap2.buoy_archive.nc
05:43:06 INFO: 
[Reading url 10/95]: http://tds.secoora.org/thredds/dodsC/carocoops.frp2.buoy.nc
05:43:10 WARNING: Cannot get cube for: http://tds.secoora.org/thredds/dodsC/carocoops.frp2.buoy.nc
Cannot find ['sea_water_temperature', 'sea_surface_temperature', 'sea_water_potential_temperature', 'equivalent_potential_temperature', 'sea_water_conservative_temperature', 'pseudo_equivalent_potential_temperature'] in http://tds.secoora.org/thredds/dodsC/carocoops.frp2.buoy.nc.
05:43:10 INFO: 
[Reading url 11/95]: http://tds.secoora.org/thredds/dodsC/carocoops.frp2.buoy_archive.nc
05:43:13 WARNING: [Not model data]: http://tds.secoora.org/thredds/dodsC/carocoops.frp2.buoy_archive.nc
05:43:13 INFO: 
[Reading url 12/95]: http://tds.secoora.org/thredds/dodsC/carocoops.sun2.buoy_archive.nc
05:43:16 WARNING: [Not model data]: http://tds.secoora.org/thredds/dodsC/carocoops.sun2.buoy_archive.nc
05:43:16 INFO: 
[Reading url 13/95]: http://tds.secoora.org/thredds/dodsC/enp.bdvf1.met.nc
05:43:19 WARNING: [Not model data]: http://tds.secoora.org/thredds/dodsC/enp.bdvf1.met.nc
05:43:19 INFO: 
[Reading url 14/95]: http://tds.secoora.org/thredds/dodsC/enp.bnkf1.met.nc
05:43:23 WARNING: [Not model data]: http://tds.secoora.org/thredds/dodsC/enp.bnkf1.met.nc
05:43:23 INFO: 
[Reading url 15/95]: http://tds.secoora.org/thredds/dodsC/enp.bobf1.met.nc
05:43:26 WARNING: [Not model data]: http://tds.secoora.org/thredds/dodsC/enp.bobf1.met.nc
05:43:26 INFO: 
[Reading url 16/95]: http://tds.secoora.org/thredds/dodsC/enp.bwsf1.met.nc
05:43:29 WARNING: [Not model data]: http://tds.secoora.org/thredds/dodsC/enp.bwsf1.met.nc
05:43:29 INFO: 
[Reading url 17/95]: http://tds.secoora.org/thredds/dodsC/enp.canf1.met.nc
05:43:32 WARNING: [Not model data]: http://tds.secoora.org/thredds/dodsC/enp.canf1.met.nc
05:43:32 INFO: 
[Reading url 18/95]: http://tds.secoora.org/thredds/dodsC/enp.cnbf1.met.nc
05:43:35 WARNING: [Not model data]: http://tds.secoora.org/thredds/dodsC/enp.cnbf1.met.nc
05:43:35 INFO: 
[Reading url 19/95]: http://tds.secoora.org/thredds/dodsC/enp.cwaf1.met.nc
05:43:38 WARNING: [Not model data]: http://tds.secoora.org/thredds/dodsC/enp.cwaf1.met.nc
05:43:38 INFO: 
[Reading url 20/95]: http://tds.secoora.org/thredds/dodsC/enp.dkkf1.met.nc
05:43:42 WARNING: [Not model data]: http://tds.secoora.org/thredds/dodsC/enp.dkkf1.met.nc
05:43:42 INFO: 
[Reading url 21/95]: http://tds.secoora.org/thredds/dodsC/enp.gbif1.met.nc
05:43:45 WARNING: [Not model data]: http://tds.secoora.org/thredds/dodsC/enp.gbif1.met.nc
05:43:45 INFO: 
[Reading url 22/95]: http://tds.secoora.org/thredds/dodsC/enp.gbtf1.met.nc
05:43:48 WARNING: [Not model data]: http://tds.secoora.org/thredds/dodsC/enp.gbtf1.met.nc
05:43:48 INFO: 
[Reading url 23/95]: http://tds.secoora.org/thredds/dodsC/enp.hcef1.met.nc
05:43:51 WARNING: [Not model data]: http://tds.secoora.org/thredds/dodsC/enp.hcef1.met.nc
05:43:51 INFO: 
[Reading url 24/95]: http://tds.secoora.org/thredds/dodsC/enp.jkyf1.met.nc
05:43:54 WARNING: [Not model data]: http://tds.secoora.org/thredds/dodsC/enp.jkyf1.met.nc
05:43:54 INFO: 
[Reading url 25/95]: http://tds.secoora.org/thredds/dodsC/enp.lbrf1.met.nc
05:43:57 WARNING: [Not model data]: http://tds.secoora.org/thredds/dodsC/enp.lbrf1.met.nc
05:43:57 INFO: 
[Reading url 26/95]: http://tds.secoora.org/thredds/dodsC/enp.lbsf1.met.nc
05:44:01 WARNING: [Not model data]: http://tds.secoora.org/thredds/dodsC/enp.lbsf1.met.nc
05:44:01 INFO: 
[Reading url 27/95]: http://tds.secoora.org/thredds/dodsC/enp.lmdf1.met.nc
05:44:04 WARNING: [Not model data]: http://tds.secoora.org/thredds/dodsC/enp.lmdf1.met.nc
05:44:04 INFO: 
[Reading url 28/95]: http://tds.secoora.org/thredds/dodsC/enp.lrif1.met.nc
05:44:07 WARNING: [Not model data]: http://tds.secoora.org/thredds/dodsC/enp.lrif1.met.nc
05:44:07 INFO: 
[Reading url 29/95]: http://tds.secoora.org/thredds/dodsC/enp.lrkf1.met.nc
05:44:11 WARNING: [Not model data]: http://tds.secoora.org/thredds/dodsC/enp.lrkf1.met.nc
05:44:11 INFO: 
[Reading url 30/95]: http://tds.secoora.org/thredds/dodsC/enp.mukf1.met.nc
05:44:14 WARNING: [Not model data]: http://tds.secoora.org/thredds/dodsC/enp.mukf1.met.nc
05:44:14 INFO: 
[Reading url 31/95]: http://tds.secoora.org/thredds/dodsC/enp.pkyf1.met.nc
05:44:18 WARNING: [Not model data]: http://tds.secoora.org/thredds/dodsC/enp.pkyf1.met.nc
05:44:18 INFO: 
[Reading url 32/95]: http://tds.secoora.org/thredds/dodsC/enp.tcvf1.met.nc
05:44:21 WARNING: [Not model data]: http://tds.secoora.org/thredds/dodsC/enp.tcvf1.met.nc
05:44:21 INFO: 
[Reading url 33/95]: http://tds.secoora.org/thredds/dodsC/enp.trrf1.met.nc
05:44:24 WARNING: [Not model data]: http://tds.secoora.org/thredds/dodsC/enp.trrf1.met.nc
05:44:24 INFO: 
[Reading url 34/95]: http://tds.secoora.org/thredds/dodsC/enp.wiwf1.met.nc
05:44:27 WARNING: [Not model data]: http://tds.secoora.org/thredds/dodsC/enp.wiwf1.met.nc
05:44:27 INFO: 
[Reading url 35/95]: http://tds.secoora.org/thredds/dodsC/enp.wrbf1.met.nc
05:44:31 WARNING: [Not model data]: http://tds.secoora.org/thredds/dodsC/enp.wrbf1.met.nc
05:44:31 INFO: 
[Reading url 36/95]: http://tds.secoora.org/thredds/dodsC/enp.wwef1.met.nc
05:44:35 WARNING: [Not model data]: http://tds.secoora.org/thredds/dodsC/enp.wwef1.met.nc
05:44:35 INFO: 
[Reading url 37/95]: http://tds.secoora.org/thredds/dodsC/fau.lobo.1.nc
05:44:45 WARNING: [Not model data]: http://tds.secoora.org/thredds/dodsC/fau.lobo.1.nc
05:44:45 INFO: 
[Reading url 38/95]: http://tds.secoora.org/thredds/dodsC/fldep.bingslanding..nc
05:44:55 WARNING: [Not model data]: http://tds.secoora.org/thredds/dodsC/fldep.bingslanding..nc
05:44:55 INFO: 
[Reading url 39/95]: http://tds.secoora.org/thredds/dodsC/fldep.stlucieinlet..nc
05:45:03 WARNING: Cannot get cube for: http://tds.secoora.org/thredds/dodsC/fldep.stlucieinlet..nc
> 1 cube found!  Expected just one.
 [<iris 'Cube' of sea_water_temperature / (celsius) (-- : 83517)>, <iris 'Cube' of sea_water_temperature / (celsius) (-- : 83517)>]
05:45:03 INFO: 
[Reading url 40/95]: http://tds.secoora.org/thredds/dodsC/fldep.tolomatoriver..nc
05:45:11 WARNING: [Not model data]: http://tds.secoora.org/thredds/dodsC/fldep.tolomatoriver..nc
05:45:11 INFO: 
[Reading url 41/95]: http://tds.secoora.org/thredds/dodsC/lbhmc.2ndave.pier.nc
05:45:18 WARNING: [Not model data]: http://tds.secoora.org/thredds/dodsC/lbhmc.2ndave.pier.nc
05:45:18 INFO: 
[Reading url 42/95]: http://tds.secoora.org/thredds/dodsC/lbhmc.apachepier.pier.nc
05:45:26 WARNING: [Not model data]: http://tds.secoora.org/thredds/dodsC/lbhmc.apachepier.pier.nc
05:45:26 INFO: 
[Reading url 43/95]: http://tds.secoora.org/thredds/dodsC/lbhmc.cherrygrove.pier.nc
05:45:32 WARNING: Cannot get cube for: http://tds.secoora.org/thredds/dodsC/lbhmc.cherrygrove.pier.nc
> 1 cube found!  Expected just one.
 [<iris 'Cube' of sea_water_temperature / (celsius) (-- : 32838)>, <iris 'Cube' of sea_water_temperature / (celsius) (-- : 32838)>]
05:45:32 INFO: 
[Reading url 44/95]: http://tds.secoora.org/thredds/dodsC/sccf.fortmyers.wq.nc
05:45:35 WARNING: [Not model data]: http://tds.secoora.org/thredds/dodsC/sccf.fortmyers.wq.nc
05:45:35 INFO: 
[Reading url 45/95]: http://tds.secoora.org/thredds/dodsC/sccf.gulfofmexico.wq.nc
05:45:39 WARNING: [Not model data]: http://tds.secoora.org/thredds/dodsC/sccf.gulfofmexico.wq.nc
05:45:39 INFO: 
[Reading url 46/95]: http://tds.secoora.org/thredds/dodsC/sccf.redfishpass.wq.nc
05:45:43 WARNING: [Not model data]: http://tds.secoora.org/thredds/dodsC/sccf.redfishpass.wq.nc
05:45:43 INFO: 
[Reading url 47/95]: http://tds.secoora.org/thredds/dodsC/sccf.shellpoint.wq.nc
05:45:47 WARNING: [Not model data]: http://tds.secoora.org/thredds/dodsC/sccf.shellpoint.wq.nc
05:45:47 INFO: 
[Reading url 48/95]: http://tds.secoora.org/thredds/dodsC/sccf.tarponbay.wq.nc
05:45:50 WARNING: [Not model data]: http://tds.secoora.org/thredds/dodsC/sccf.tarponbay.wq.nc
05:45:50 INFO: 
[Reading url 49/95]: http://tds.secoora.org/thredds/dodsC/usf.c10.mcat.nc
05:45:56 WARNING: Cannot get cube for: http://tds.secoora.org/thredds/dodsC/usf.c10.mcat.nc
> 1 cube found!  Expected just one.
 [<iris 'Cube' of sea_water_temperature / (celsius) (time: 48234)>, <iris 'Cube' of sea_water_temperature / (celsius) (time: 48234)>]
05:45:56 INFO: 
[Reading url 50/95]: http://tds.secoora.org/thredds/dodsC/usf.c21.weatherpak.nc
05:46:01 WARNING: Cannot get cube for: http://tds.secoora.org/thredds/dodsC/usf.c21.weatherpak.nc
Cannot find ['sea_water_temperature', 'sea_surface_temperature', 'sea_water_potential_temperature', 'equivalent_potential_temperature', 'sea_water_conservative_temperature', 'pseudo_equivalent_potential_temperature'] in http://tds.secoora.org/thredds/dodsC/usf.c21.weatherpak.nc.
05:46:01 INFO: 
[Reading url 51/95]: http://tds.secoora.org/thredds/dodsC/usf.shp.ngwlms.nc
05:46:08 WARNING: [Not model data]: http://tds.secoora.org/thredds/dodsC/usf.shp.ngwlms.nc
05:46:08 INFO: 
[Reading url 52/95]: http://thredds.axiomalaska.com/thredds/dodsC/G1_SST_GLOBAL.nc
05:47:45 INFO: 
[Reading url 53/95]: http://thredds.cdip.ucsd.edu/thredds/dodsC/cdip/archive/028p1/028p1_d16.nc
05:47:47 WARNING: [Not model data]: http://thredds.cdip.ucsd.edu/thredds/dodsC/cdip/archive/028p1/028p1_d16.nc
05:47:47 INFO: 
[Reading url 54/95]: http://thredds.cdip.ucsd.edu/thredds/dodsC/cdip/archive/028p1/028p1_historic.nc
05:47:59 WARNING: [Not model data]: http://thredds.cdip.ucsd.edu/thredds/dodsC/cdip/archive/028p1/028p1_historic.nc
05:47:59 INFO: 
[Reading url 55/95]: http://thredds.cdip.ucsd.edu/thredds/dodsC/cdip/archive/029p1/029p1_d19.nc
05:48:01 WARNING: [Not model data]: http://thredds.cdip.ucsd.edu/thredds/dodsC/cdip/archive/029p1/029p1_d19.nc
05:48:01 INFO: 
[Reading url 56/95]: http://thredds.cdip.ucsd.edu/thredds/dodsC/cdip/archive/029p1/029p1_historic.nc
05:48:17 WARNING: [Not model data]: http://thredds.cdip.ucsd.edu/thredds/dodsC/cdip/archive/029p1/029p1_historic.nc
05:48:17 INFO: 
[Reading url 57/95]: http://thredds.cdip.ucsd.edu/thredds/dodsC/cdip/archive/036p1/036p1_d40.nc
05:48:19 WARNING: [Not model data]: http://thredds.cdip.ucsd.edu/thredds/dodsC/cdip/archive/036p1/036p1_d40.nc
05:48:19 INFO: 
[Reading url 58/95]: http://thredds.cdip.ucsd.edu/thredds/dodsC/cdip/archive/043p1/043p1_d16.nc
05:48:21 WARNING: [Not model data]: http://thredds.cdip.ucsd.edu/thredds/dodsC/cdip/archive/043p1/043p1_d16.nc
05:48:21 INFO: 
[Reading url 59/95]: http://thredds.cdip.ucsd.edu/thredds/dodsC/cdip/archive/043p1/043p1_d17.nc
05:48:24 WARNING: [Not model data]: http://thredds.cdip.ucsd.edu/thredds/dodsC/cdip/archive/043p1/043p1_d17.nc
05:48:24 INFO: 
[Reading url 60/95]: http://thredds.cdip.ucsd.edu/thredds/dodsC/cdip/archive/045p1/045p1_historic.nc
05:48:37 WARNING: [Not model data]: http://thredds.cdip.ucsd.edu/thredds/dodsC/cdip/archive/045p1/045p1_historic.nc
05:48:37 INFO: 
[Reading url 61/95]: http://thredds.cdip.ucsd.edu/thredds/dodsC/cdip/archive/067p1/067p1_d22.nc
05:48:39 WARNING: [Not model data]: http://thredds.cdip.ucsd.edu/thredds/dodsC/cdip/archive/067p1/067p1_d22.nc
05:48:39 INFO: 
[Reading url 62/95]: http://thredds.cdip.ucsd.edu/thredds/dodsC/cdip/archive/067p1/067p1_historic.nc
05:48:50 WARNING: [Not model data]: http://thredds.cdip.ucsd.edu/thredds/dodsC/cdip/archive/067p1/067p1_historic.nc
05:48:50 INFO: 
[Reading url 63/95]: http://thredds.cdip.ucsd.edu/thredds/dodsC/cdip/archive/076p1/076p1_d27.nc
05:48:53 WARNING: [Not model data]: http://thredds.cdip.ucsd.edu/thredds/dodsC/cdip/archive/076p1/076p1_d27.nc
05:48:53 INFO: 
[Reading url 64/95]: http://thredds.cdip.ucsd.edu/thredds/dodsC/cdip/archive/093p1/093p1_d40.nc
05:48:54 WARNING: [Not model data]: http://thredds.cdip.ucsd.edu/thredds/dodsC/cdip/archive/093p1/093p1_d40.nc
05:48:54 INFO: 
[Reading url 65/95]: http://thredds.cdip.ucsd.edu/thredds/dodsC/cdip/archive/098p1/098p1_historic.nc
05:49:04 WARNING: [Not model data]: http://thredds.cdip.ucsd.edu/thredds/dodsC/cdip/archive/098p1/098p1_historic.nc
05:49:04 INFO: 
[Reading url 66/95]: http://thredds.cdip.ucsd.edu/thredds/dodsC/cdip/archive/100p1/100p1_d13.nc
05:49:05 WARNING: [Not model data]: http://thredds.cdip.ucsd.edu/thredds/dodsC/cdip/archive/100p1/100p1_d13.nc
05:49:05 INFO: 
[Reading url 67/95]: http://thredds.cdip.ucsd.edu/thredds/dodsC/cdip/archive/100p1/100p1_historic.nc
05:49:17 WARNING: [Not model data]: http://thredds.cdip.ucsd.edu/thredds/dodsC/cdip/archive/100p1/100p1_historic.nc
05:49:17 INFO: 
[Reading url 68/95]: http://thredds.cdip.ucsd.edu/thredds/dodsC/cdip/archive/132p1/132p1_d11.nc
05:49:19 WARNING: [Not model data]: http://thredds.cdip.ucsd.edu/thredds/dodsC/cdip/archive/132p1/132p1_d11.nc
05:49:19 INFO: 
[Reading url 69/95]: http://thredds.cdip.ucsd.edu/thredds/dodsC/cdip/archive/132p1/132p1_historic.nc
05:49:27 WARNING: [Not model data]: http://thredds.cdip.ucsd.edu/thredds/dodsC/cdip/archive/132p1/132p1_historic.nc
05:49:27 INFO: 
[Reading url 70/95]: http://thredds.cdip.ucsd.edu/thredds/dodsC/cdip/archive/134p1/134p1_d09.nc
05:49:30 WARNING: [Not model data]: http://thredds.cdip.ucsd.edu/thredds/dodsC/cdip/archive/134p1/134p1_d09.nc
05:49:30 INFO: 
[Reading url 71/95]: http://thredds.cdip.ucsd.edu/thredds/dodsC/cdip/archive/134p1/134p1_historic.nc
05:49:37 WARNING: [Not model data]: http://thredds.cdip.ucsd.edu/thredds/dodsC/cdip/archive/134p1/134p1_historic.nc
05:49:37 INFO: 
[Reading url 72/95]: http://thredds.cdip.ucsd.edu/thredds/dodsC/cdip/archive/142p1/142p1_d14.nc
05:49:40 WARNING: [Not model data]: http://thredds.cdip.ucsd.edu/thredds/dodsC/cdip/archive/142p1/142p1_d14.nc
05:49:40 INFO: 
[Reading url 73/95]: http://thredds.cdip.ucsd.edu/thredds/dodsC/cdip/archive/142p1/142p1_historic.nc
05:49:46 WARNING: [Not model data]: http://thredds.cdip.ucsd.edu/thredds/dodsC/cdip/archive/142p1/142p1_historic.nc
05:49:46 INFO: 
[Reading url 74/95]: http://thredds.cdip.ucsd.edu/thredds/dodsC/cdip/archive/144p1/144p1_d07.nc
05:49:49 WARNING: [Not model data]: http://thredds.cdip.ucsd.edu/thredds/dodsC/cdip/archive/144p1/144p1_d07.nc
05:49:49 INFO: 
[Reading url 75/95]: http://thredds.cdip.ucsd.edu/thredds/dodsC/cdip/archive/144p1/144p1_historic.nc
05:49:55 WARNING: [Not model data]: http://thredds.cdip.ucsd.edu/thredds/dodsC/cdip/archive/144p1/144p1_historic.nc
05:49:55 INFO: 
[Reading url 76/95]: http://thredds.cdip.ucsd.edu/thredds/dodsC/cdip/archive/150p1/150p1_d07.nc
05:49:58 WARNING: [Not model data]: http://thredds.cdip.ucsd.edu/thredds/dodsC/cdip/archive/150p1/150p1_d07.nc
05:49:58 INFO: 
[Reading url 77/95]: http://thredds.cdip.ucsd.edu/thredds/dodsC/cdip/archive/150p1/150p1_historic.nc
05:50:04 WARNING: [Not model data]: http://thredds.cdip.ucsd.edu/thredds/dodsC/cdip/archive/150p1/150p1_historic.nc
05:50:04 INFO: 
[Reading url 78/95]: http://thredds.cdip.ucsd.edu/thredds/dodsC/cdip/archive/156p1/156p1_d07.nc
05:50:07 WARNING: [Not model data]: http://thredds.cdip.ucsd.edu/thredds/dodsC/cdip/archive/156p1/156p1_d07.nc
05:50:07 INFO: 
[Reading url 79/95]: http://thredds.cdip.ucsd.edu/thredds/dodsC/cdip/archive/162p1/162p1_d04.nc
05:50:15 WARNING: [Not model data]: http://thredds.cdip.ucsd.edu/thredds/dodsC/cdip/archive/162p1/162p1_d04.nc
05:50:15 INFO: 
[Reading url 80/95]: http://thredds.cdip.ucsd.edu/thredds/dodsC/cdip/archive/166p1/166p1_d02.nc
05:50:20 WARNING: [Not model data]: http://thredds.cdip.ucsd.edu/thredds/dodsC/cdip/archive/166p1/166p1_d02.nc
05:50:20 INFO: 
[Reading url 81/95]: http://thredds.cdip.ucsd.edu/thredds/dodsC/cdip/archive/168p1/168p1_d05.nc
05:50:23 WARNING: [Not model data]: http://thredds.cdip.ucsd.edu/thredds/dodsC/cdip/archive/168p1/168p1_d05.nc
05:50:23 INFO: 
[Reading url 82/95]: http://thredds.cdip.ucsd.edu/thredds/dodsC/cdip/archive/179p1/179p1_d04.nc
05:50:25 WARNING: [Not model data]: http://thredds.cdip.ucsd.edu/thredds/dodsC/cdip/archive/179p1/179p1_d04.nc
05:50:25 INFO: 
[Reading url 83/95]: http://thredds.cdip.ucsd.edu/thredds/dodsC/cdip/archive/185p1/185p1_d02.nc
05:50:28 WARNING: [Not model data]: http://thredds.cdip.ucsd.edu/thredds/dodsC/cdip/archive/185p1/185p1_d02.nc
05:50:28 INFO: 
[Reading url 84/95]: http://thredds.cdip.ucsd.edu/thredds/dodsC/cdip/archive/185p1/185p1_d03.nc
05:50:31 WARNING: [Not model data]: http://thredds.cdip.ucsd.edu/thredds/dodsC/cdip/archive/185p1/185p1_d03.nc
05:50:31 INFO: 
[Reading url 85/95]: http://thredds.cdip.ucsd.edu/thredds/dodsC/cdip/archive/186p1/186p1_d03.nc
05:50:33 WARNING: [Not model data]: http://thredds.cdip.ucsd.edu/thredds/dodsC/cdip/archive/186p1/186p1_d03.nc
05:50:33 INFO: 
[Reading url 86/95]: http://thredds.cdip.ucsd.edu/thredds/dodsC/cdip/archive/190p1/190p1_d02.nc
05:50:36 WARNING: [Not model data]: http://thredds.cdip.ucsd.edu/thredds/dodsC/cdip/archive/190p1/190p1_d02.nc
05:50:36 INFO: 
[Reading url 87/95]: http://thredds.cdip.ucsd.edu/thredds/dodsC/cdip/archive/190p1/190p1_historic.nc
05:50:43 WARNING: [Not model data]: http://thredds.cdip.ucsd.edu/thredds/dodsC/cdip/archive/190p1/190p1_historic.nc
05:50:43 INFO: 
[Reading url 88/95]: http://thredds.cdip.ucsd.edu/thredds/dodsC/cdip/archive/191p1/191p1_d12.nc
05:50:46 WARNING: [Not model data]: http://thredds.cdip.ucsd.edu/thredds/dodsC/cdip/archive/191p1/191p1_d12.nc
05:50:46 INFO: 
[Reading url 89/95]: http://thredds.cdip.ucsd.edu/thredds/dodsC/cdip/archive/192p1/192p1_d02.nc
05:50:54 WARNING: [Not model data]: http://thredds.cdip.ucsd.edu/thredds/dodsC/cdip/archive/192p1/192p1_d02.nc
05:50:54 INFO: 
[Reading url 90/95]: http://thredds.cdip.ucsd.edu/thredds/dodsC/cdip/archive/192p1/192p1_historic.nc
05:50:59 WARNING: [Not model data]: http://thredds.cdip.ucsd.edu/thredds/dodsC/cdip/archive/192p1/192p1_historic.nc
05:50:59 INFO: 
[Reading url 91/95]: http://thredds.cdip.ucsd.edu/thredds/dodsC/cdip/archive/201p1/201p1_d02.nc
05:51:07 WARNING: [Not model data]: http://thredds.cdip.ucsd.edu/thredds/dodsC/cdip/archive/201p1/201p1_d02.nc
05:51:07 INFO: 
[Reading url 92/95]: http://thredds.cdip.ucsd.edu/thredds/dodsC/cdip/archive/203p1/203p1_d01.nc
05:51:10 WARNING: [Not model data]: http://thredds.cdip.ucsd.edu/thredds/dodsC/cdip/archive/203p1/203p1_d01.nc
05:51:10 INFO: 
[Reading url 93/95]: http://omgarch1.meas.ncsu.edu:8080/thredds/dodsC/fmrc/sabgom/SABGOM_Forecast_Model_Run_Collection_best.ncd
05:51:29 INFO: 
[Reading url 94/95]: http://omgsrv1.meas.ncsu.edu:8080/thredds/dodsC/fmrc/us_east/US_East_Forecast_Model_Run_Collection_best.ncd
05:51:42 WARNING: Cannot get cube for: http://omgsrv1.meas.ncsu.edu:8080/thredds/dodsC/fmrc/us_east/US_East_Forecast_Model_Run_Collection_best.ncd
istart must be different from istop! Got istart 0 and  istop 0
05:51:42 INFO: 
[Reading url 95/95]: http://crow.marine.usf.edu:8080/thredds/dodsC/WFS_SWAN_NF_model/USF_Ocean_Circulation_Group_West_Florida_Shelf_Daily_SWAN_Nowcast_Forecast_Wave_Model_Data_best.ncd
05:51:43 WARNING: Cannot get cube for: http://crow.marine.usf.edu:8080/thredds/dodsC/WFS_SWAN_NF_model/USF_Ocean_Circulation_Group_West_Florida_Shelf_Daily_SWAN_Nowcast_Forecast_Wave_Model_Data_best.ncd
Cannot find ['sea_water_temperature', 'sea_surface_temperature', 'sea_water_potential_temperature', 'equivalent_potential_temperature', 'sea_water_conservative_temperature', 'pseudo_equivalent_potential_temperature'] in http://crow.marine.usf.edu:8080/thredds/dodsC/WFS_SWAN_NF_model/USF_Ocean_Circulation_Group_West_Florida_Shelf_Daily_SWAN_Nowcast_Forecast_Wave_Model_Data_best.ncd.
05:51:43 INFO: * Downloading to file 2014-07-07/2014-07-07-SABGOM_ARCHIVE.nc **
05:51:56 INFO: [Water  ] Duck, NC
05:52:00 INFO: [Land   ] Oregon Inlet Marina, NC
05:52:02 INFO: [Water  ] USCG Station Hatteras, NC
05:52:05 INFO: [Land   ] Beaufort, NC
05:52:07 INFO: [Land   ] Wilmington, NC
05:52:10 INFO: [Water  ] Wrightsville Beach, NC
05:52:14 INFO: [Water  ] Springmaid Pier, SC
05:52:17 INFO: [Land   ] Charleston, SC
05:52:19 INFO: [Land   ] Fort Pulaski, GA
05:52:22 INFO: [Land   ] Fernandina Beach, FL
05:52:25 INFO: [Land   ] Mayport (Bar Pilots Dock), FL
05:52:27 INFO: [Land   ] Dames Point, FL
05:52:30 INFO: [Land   ] Jacksonville University, FL
05:52:33 INFO: [Land   ] I-295 Bridge, St Johns River, FL
05:52:37 INFO: [Land   ] Red Bay Point, St Johns River, FL
05:52:41 INFO: [Land   ] Racy Point, St Johns River, FL
05:52:46 INFO: [Land   ] Trident Pier, FL
05:52:53 INFO: [Land   ] Lake Worth Pier, FL
05:52:59 INFO: [Land   ] Vaca Key, FL
05:53:02 INFO: [Water  ] Key West, FL
05:53:05 INFO: [Land   ] Naples, FL
05:53:08 INFO: [Land   ] Fort Myers, FL
05:53:14 INFO: [Land   ] Port Manatee, FL
05:53:21 INFO: [Land   ] St Petersburg, FL
05:53:27 INFO: [Water  ] Old Port Tampa, FL
05:53:30 INFO: [Land   ] Apalachicola, FL
05:53:33 INFO: [Land   ] Panama City, FL
05:53:38 INFO: [Water  ] Panama City Beach, FL
05:53:42 INFO: [Land   ] Pensacola, FL
05:53:46 INFO: [Land   ] Tolomato River station
05:53:52 INFO: [Water  ] Duck Key, FL
05:53:55 INFO: [Land   ] Broad River Lower, FL
05:53:57 INFO: [Land   ] Cherry Grove Pier, N. Myrtle Beach, SC
05:54:03 INFO: [Land   ] Gulf of Mexico station
05:54:06 INFO: [Land   ] Shell Point
05:54:08 INFO: [Land   ] Taylor River, FL
05:54:14 INFO: [Water  ] Redfish Pass station
05:54:17 INFO: [Water  ] Little Rabbit Key, FL
05:54:24 INFO: [Water  ] Peterson Key, FL
05:54:26 INFO: [Land   ] Fort Myers station
05:54:29 INFO: [Land   ] Highway Creek, FL
05:54:31 INFO: [Water  ] CORMP ILM2, Wrightsville Beach Nearshore, NC
05:54:35 INFO: [Land   ] Clear Water Pass, FL 
05:54:37 INFO: [Water  ] Tarpon Bay station
05:54:40 INFO: [Land   ] Gunboat Island, FL
05:54:43 INFO: [Land   ] Cannon Bay, FL
05:54:50 INFO: [Water  ] Murray Key, FL
05:54:53 INFO: [Land   ] Apache Pier, Myrtle Beach, SC
05:54:55 INFO: [Water  ] Butternut Key, FL
05:54:58 INFO: [Land   ] Shell Point station
05:55:04 INFO: [Water  ] Whipray Basin, FL
05:55:10 INFO: [Land   ] 2nd Ave North Pier, Myrtle Beach, SC
05:55:13 INFO: [Land   ] Garfield Bight, FL
05:55:16 INFO: [Land   ] Lane River, FL 
05:55:19 INFO: [Land   ] Little Blackwater, FL
05:55:24 INFO: [Water  ] Little Madeira, FL
05:55:29 INFO: [Water  ] St Lucie Inlet station
05:55:33 INFO: [Land   ] White Water -West, FL
05:55:36 INFO: [Land   ] fau_lobo_1
05:55:42 INFO: [Water  ] CORMP ILM3, Wrightsville Beach Offshore, NC
05:55:45 INFO: [Land   ] Broad River, FL
05:55:47 INFO: [Land   ] Willy Willy, FL
05:55:50 INFO: [Land   ] Cane Patch, FL
05:55:55 INFO: [Water  ] Sebastian Inlet met station
05:56:02 INFO: [Water  ] CAROCOOPS SUN2, Sunset Nearshore, NC
05:56:05 INFO: [Land   ] Bing&#39;s Landing station
05:56:10 INFO: [Water  ] Bob Allen, FL
05:56:13 INFO: [Land   ] Blackwater Sound, FL
05:56:18 INFO: [Land   ] Trout Cove, FL
05:56:21 INFO: [Water  ] Johnson Key, FL
05:57:29 INFO: Finished processing [SABGOM_ARCHIVE]: http://crow.marine.usf.edu:8080/thredds/dodsC/WFS_SWAN_NF_model/USF_Ocean_Circulation_Group_West_Florida_Shelf_Daily_SWAN_Nowcast_Forecast_Wave_Model_Data_best.ncd

05:57:29 INFO: *** Downloading to file 2014-07-07/2014-07-07-G1SST__SST.nc ****
05:58:19 INFO: [Water  ] Duck, NC
05:58:36 INFO: [Water  ] Oregon Inlet Marina, NC
05:58:54 INFO: [Water  ] USCG Station Hatteras, NC
05:59:09 INFO: [Land   ] Beaufort, NC
05:59:11 INFO: [Land   ] Wilmington, NC
05:59:20 INFO: [Land   ] Wrightsville Beach, NC
05:59:23 INFO: [Land   ] Springmaid Pier, SC
05:59:25 INFO: [Land   ] Charleston, SC
05:59:43 INFO: [Water  ] Fort Pulaski, GA
05:59:44 INFO: [Land   ] Fernandina Beach, FL
05:59:46 INFO: [Land   ] Mayport (Bar Pilots Dock), FL
05:59:48 INFO: [Land   ] Dames Point, FL
05:59:50 INFO: [Land   ] Jacksonville University, FL
05:59:52 INFO: [Land   ] I-295 Bridge, St Johns River, FL
05:59:54 INFO: [Land   ] Red Bay Point, St Johns River, FL
05:59:55 INFO: [Land   ] Racy Point, St Johns River, FL
06:00:01 INFO: [Land   ] Trident Pier, FL
06:00:02 INFO: [Land   ] Lake Worth Pier, FL
06:00:20 INFO: [Water  ] Vaca Key, FL
06:00:38 INFO: [Water  ] Key West, FL
06:00:39 INFO: [Land   ] Naples, FL
06:00:41 INFO: [Land   ] Fort Myers, FL
06:00:43 INFO: [Land   ] Port Manatee, FL
06:00:48 INFO: [Land   ] St Petersburg, FL
06:00:54 INFO: [Land   ] Old Port Tampa, FL
06:01:04 INFO: [Land   ] Apalachicola, FL
06:01:06 INFO: [Land   ] Panama City, FL
06:01:15 INFO: [Land   ] Panama City Beach, FL
06:01:17 INFO: [Land   ] Pensacola, FL
06:01:19 INFO: [Land   ] Tolomato River station
06:01:36 INFO: [Water  ] Duck Key, FL
06:01:38 INFO: [Land   ] Broad River Lower, FL
06:01:55 INFO: [Water  ] Cherry Grove Pier, N. Myrtle Beach, SC
06:02:12 INFO: [Water  ] Gulf of Mexico station
06:02:30 INFO: [Water  ] Shell Point
06:02:32 INFO: [Land   ] Taylor River, FL
06:02:50 INFO: [Water  ] Redfish Pass station
06:03:07 INFO: [Water  ] Little Rabbit Key, FL
06:03:31 INFO: [Water  ] Peterson Key, FL
06:03:33 INFO: [Land   ] Fort Myers station
06:03:35 INFO: [Land   ] Highway Creek, FL
06:03:52 INFO: [Water  ] CORMP ILM2, Wrightsville Beach Nearshore, NC
06:03:59 INFO: [Land   ] Clear Water Pass, FL 
06:04:01 INFO: [Land   ] Tarpon Bay station
06:04:03 INFO: [Land   ] Gunboat Island, FL
06:04:04 INFO: [Land   ] Cannon Bay, FL
06:04:21 INFO: [Water  ] Murray Key, FL
06:04:32 INFO: [Land   ] Apache Pier, Myrtle Beach, SC
06:04:49 INFO: [Water  ] Butternut Key, FL
06:04:57 INFO: [Land   ] Shell Point station
06:05:15 INFO: [Water  ] Whipray Basin, FL
06:05:17 INFO: [Land   ] 2nd Ave North Pier, Myrtle Beach, SC
06:05:19 INFO: [Land   ] Garfield Bight, FL
06:05:20 INFO: [Land   ] Lane River, FL 
06:05:37 INFO: [Water  ] Little Blackwater, FL
06:05:44 INFO: [Land   ] Little Madeira, FL
06:05:46 INFO: [Land   ] St Lucie Inlet station
06:05:47 INFO: [Land   ] White Water -West, FL
06:05:49 INFO: [Land   ] fau_lobo_1
06:06:06 INFO: [Water  ] CORMP ILM3, Wrightsville Beach Offshore, NC
06:06:08 INFO: [Land   ] Broad River, FL
06:06:10 INFO: [Land   ] Willy Willy, FL
06:06:12 INFO: [Land   ] Cane Patch, FL
06:06:19 INFO: [Land   ] Sebastian Inlet met station
06:06:37 INFO: [Water  ] CAROCOOPS SUN2, Sunset Nearshore, NC
06:06:39 INFO: [Land   ] Bing&#39;s Landing station
06:06:57 INFO: [Water  ] Bob Allen, FL
06:07:14 INFO: [Water  ] Blackwater Sound, FL
06:07:16 INFO: [Land   ] Trout Cove, FL
06:07:34 INFO: [Water  ] Johnson Key, FL
06:07:34 INFO: Finished processing [G1SST__SST]: http://crow.marine.usf.edu:8080/thredds/dodsC/WFS_SWAN_NF_model/USF_Ocean_Circulation_Group_West_Florida_Shelf_Daily_SWAN_Nowcast_Forecast_Wave_Model_Data_best.ncd

06:07:34 INFO: ****** Downloading to file 2014-07-07/2014-07-07-HYCOM.nc ******
06:07:37 INFO: [Land   ] Duck, NC
06:07:40 INFO: [Water  ] Oregon Inlet Marina, NC
06:07:43 INFO: [Land   ] USCG Station Hatteras, NC
06:07:45 INFO: [Land   ] Beaufort, NC
06:07:48 INFO: [Land   ] Wilmington, NC
06:07:51 INFO: [Water  ] Wrightsville Beach, NC
06:07:51 INFO: [No Data] Springmaid Pier, SC
06:07:53 INFO: [Land   ] Charleston, SC
06:07:56 INFO: [Land   ] Fort Pulaski, GA
06:07:59 INFO: [Land   ] Fernandina Beach, FL
06:08:02 INFO: [Land   ] Mayport (Bar Pilots Dock), FL
06:08:05 INFO: [Land   ] Dames Point, FL
06:08:08 INFO: [Land   ] Jacksonville University, FL
06:08:10 INFO: [Land   ] I-295 Bridge, St Johns River, FL
06:08:13 INFO: [Land   ] Red Bay Point, St Johns River, FL
06:08:13 INFO: [No Data] Racy Point, St Johns River, FL
06:08:16 INFO: [Land   ] Trident Pier, FL
06:08:19 INFO: [Water  ] Lake Worth Pier, FL
06:08:22 INFO: [Land   ] Vaca Key, FL
06:08:24 INFO: [Land   ] Key West, FL
06:08:24 INFO: [No Data] Naples, FL
06:08:27 INFO: [Land   ] Fort Myers, FL
06:08:30 INFO: [Land   ] Port Manatee, FL
06:08:32 INFO: [Land   ] St Petersburg, FL
06:08:35 INFO: [Land   ] Old Port Tampa, FL
06:08:38 INFO: [Land   ] Apalachicola, FL
06:08:41 INFO: [Land   ] Panama City, FL
06:08:41 INFO: [No Data] Panama City Beach, FL
06:08:43 INFO: [Land   ] Pensacola, FL
06:08:47 INFO: [Land   ] Tolomato River station
06:08:50 INFO: [Land   ] Duck Key, FL
06:08:55 INFO: [Land   ] Broad River Lower, FL
06:08:58 INFO: [Land   ] Cherry Grove Pier, N. Myrtle Beach, SC
06:09:03 INFO: [Land   ] Gulf of Mexico station
06:09:06 INFO: [Land   ] Shell Point
06:09:09 INFO: [Land   ] Taylor River, FL
06:09:12 INFO: [Land   ] Redfish Pass station
06:09:15 INFO: [Land   ] Little Rabbit Key, FL
06:09:18 INFO: [Land   ] Peterson Key, FL
06:09:18 INFO: [No Data] Fort Myers station
06:09:18 INFO: [No Data] Highway Creek, FL
06:09:18 INFO: [No Data] CORMP ILM2, Wrightsville Beach Nearshore, NC
06:09:21 INFO: [Land   ] Clear Water Pass, FL 
06:09:24 INFO: [Land   ] Tarpon Bay station
06:09:27 INFO: [Land   ] Gunboat Island, FL
06:09:30 INFO: [Land   ] Cannon Bay, FL
06:09:33 INFO: [Land   ] Murray Key, FL
06:09:36 INFO: [Land   ] Apache Pier, Myrtle Beach, SC
06:09:38 INFO: [Land   ] Butternut Key, FL
06:09:41 INFO: [Land   ] Shell Point station
06:09:44 INFO: [Land   ] Whipray Basin, FL
06:09:47 INFO: [Land   ] 2nd Ave North Pier, Myrtle Beach, SC
06:09:50 INFO: [Land   ] Garfield Bight, FL
06:09:53 INFO: [Land   ] Lane River, FL 
06:09:56 INFO: [Land   ] Little Blackwater, FL
06:09:59 INFO: [Land   ] Little Madeira, FL
06:10:02 INFO: [Land   ] St Lucie Inlet station
06:10:05 INFO: [Land   ] White Water -West, FL
06:10:08 INFO: [Land   ] fau_lobo_1
06:10:11 INFO: [Water  ] CORMP ILM3, Wrightsville Beach Offshore, NC
06:10:11 INFO: [No Data] Broad River, FL
06:10:15 INFO: [Land   ] Willy Willy, FL
06:10:18 INFO: [Land   ] Cane Patch, FL
06:10:21 INFO: [Land   ] Sebastian Inlet met station
06:10:24 INFO: [Water  ] CAROCOOPS SUN2, Sunset Nearshore, NC
06:10:27 INFO: [Land   ] Bing&#39;s Landing station
06:10:27 INFO: [No Data] Bob Allen, FL
06:10:27 INFO: [No Data] Blackwater Sound, FL
06:10:30 INFO: [Land   ] Trout Cove, FL
06:10:33 INFO: [Land   ] Johnson Key, FL
06:10:33 INFO: Finished processing [HYCOM]: http://crow.marine.usf.edu:8080/thredds/dodsC/WFS_SWAN_NF_model/USF_Ocean_Circulation_Group_West_Florida_Shelf_Daily_SWAN_Nowcast_Forecast_Wave_Model_Data_best.ncd

06:10:33 INFO: **** Downloading to file 2014-07-07/2014-07-07-USF_ROMS.nc *****
06:10:33 INFO: [No Data] Duck, NC
06:10:33 INFO: [No Data] Oregon Inlet Marina, NC
06:10:33 INFO: [No Data] USCG Station Hatteras, NC
06:10:33 INFO: [No Data] Beaufort, NC
06:10:33 INFO: [No Data] Wilmington, NC
06:10:33 INFO: [No Data] Wrightsville Beach, NC
06:10:33 INFO: [No Data] Springmaid Pier, SC
06:10:33 INFO: [No Data] Charleston, SC
06:10:33 INFO: [No Data] Fort Pulaski, GA
06:10:33 INFO: [No Data] Fernandina Beach, FL
06:10:33 INFO: [No Data] Mayport (Bar Pilots Dock), FL
06:10:33 INFO: [No Data] Dames Point, FL
06:10:33 INFO: [No Data] Jacksonville University, FL
06:10:33 INFO: [No Data] I-295 Bridge, St Johns River, FL
06:10:33 INFO: [No Data] Red Bay Point, St Johns River, FL
06:10:33 INFO: [No Data] Racy Point, St Johns River, FL
06:10:33 INFO: [No Data] Trident Pier, FL
06:10:33 INFO: [No Data] Lake Worth Pier, FL
06:10:33 INFO: [No Data] Vaca Key, FL
06:10:33 INFO: [No Data] Key West, FL
06:10:37 INFO: [Water  ] Naples, FL
06:10:38 INFO: [Water  ] Fort Myers, FL
06:10:40 INFO: [Water  ] Port Manatee, FL
06:10:40 INFO: [No Data] St Petersburg, FL
06:10:41 INFO: [Water  ] Old Port Tampa, FL
06:10:44 INFO: [Water  ] Apalachicola, FL
06:10:46 INFO: [Water  ] Panama City, FL
06:10:49 INFO: [Water  ] Panama City Beach, FL
06:10:49 INFO: [No Data] Pensacola, FL
06:10:49 INFO: [No Data] Tolomato River station
06:10:49 INFO: [No Data] Duck Key, FL
06:10:50 INFO: [Water  ] Broad River Lower, FL
06:10:50 INFO: [No Data] Cherry Grove Pier, N. Myrtle Beach, SC
06:10:51 INFO: [Water  ] Gulf of Mexico station
06:10:54 INFO: [Water  ] Shell Point
06:10:54 INFO: [No Data] Taylor River, FL
06:10:56 INFO: [Water  ] Redfish Pass station
06:10:56 INFO: [No Data] Little Rabbit Key, FL
06:10:57 INFO: [Water  ] Peterson Key, FL
06:10:57 INFO: [No Data] Fort Myers station
06:10:58 INFO: [Water  ] Highway Creek, FL
06:10:58 INFO: [No Data] CORMP ILM2, Wrightsville Beach Nearshore, NC
06:10:59 INFO: [Water  ] Clear Water Pass, FL 
06:11:01 INFO: [Water  ] Tarpon Bay station
06:11:01 INFO: [No Data] Gunboat Island, FL
06:11:03 INFO: [Water  ] Cannon Bay, FL
06:11:05 INFO: [Water  ] Murray Key, FL
06:11:05 INFO: [No Data] Apache Pier, Myrtle Beach, SC
06:11:07 INFO: [Water  ] Butternut Key, FL
06:11:08 INFO: [Water  ] Shell Point station
06:11:08 INFO: [No Data] Whipray Basin, FL
06:11:08 INFO: [No Data] 2nd Ave North Pier, Myrtle Beach, SC
06:11:08 INFO: [No Data] Garfield Bight, FL
06:11:09 INFO: [Water  ] Lane River, FL 
06:11:10 INFO: [Water  ] Little Blackwater, FL
06:11:10 INFO: [No Data] Little Madeira, FL
06:11:10 INFO: [No Data] St Lucie Inlet station
06:11:10 INFO: [No Data] White Water -West, FL
06:11:10 INFO: [No Data] fau_lobo_1
06:11:10 INFO: [No Data] CORMP ILM3, Wrightsville Beach Offshore, NC
06:11:12 INFO: [Water  ] Broad River, FL
06:11:14 INFO: [Water  ] Willy Willy, FL
06:11:15 INFO: [Water  ] Cane Patch, FL
06:11:15 INFO: [No Data] Sebastian Inlet met station
06:11:15 INFO: [No Data] CAROCOOPS SUN2, Sunset Nearshore, NC
06:11:15 INFO: [No Data] Bing&#39;s Landing station
06:11:18 INFO: [Water  ] Bob Allen, FL
06:11:20 INFO: [Water  ] Blackwater Sound, FL
06:11:20 INFO: [No Data] Trout Cove, FL
06:11:21 INFO: [Water  ] Johnson Key, FL
06:11:49 INFO: Finished processing [USF_ROMS]: http://crow.marine.usf.edu:8080/thredds/dodsC/WFS_SWAN_NF_model/USF_Ocean_Circulation_Group_West_Florida_Shelf_Daily_SWAN_Nowcast_Forecast_Wave_Model_Data_best.ncd

06:11:49 INFO: **** Downloading to file 2014-07-07/2014-07-07-COAWST_4.nc *****
06:12:08 INFO: [Land   ] Duck, NC
06:12:18 INFO: [Water  ] Oregon Inlet Marina, NC
06:12:23 INFO: [Water  ] USCG Station Hatteras, NC
06:12:32 INFO: [Land   ] Beaufort, NC
06:12:37 INFO: [Land   ] Wilmington, NC
06:12:42 INFO: [Water  ] Wrightsville Beach, NC
06:12:52 INFO: [Water  ] Springmaid Pier, SC
06:13:00 INFO: [Land   ] Charleston, SC
06:13:06 INFO: [Land   ] Fort Pulaski, GA
06:13:11 INFO: [Land   ] Fernandina Beach, FL
06:13:16 INFO: [Land   ] Mayport (Bar Pilots Dock), FL
06:13:22 INFO: [Land   ] Dames Point, FL
06:13:27 INFO: [Land   ] Jacksonville University, FL
06:13:32 INFO: [Land   ] I-295 Bridge, St Johns River, FL
06:13:38 INFO: [Land   ] Red Bay Point, St Johns River, FL
06:13:43 INFO: [Land   ] Racy Point, St Johns River, FL
06:13:48 INFO: [Land   ] Trident Pier, FL
06:13:58 INFO: [Water  ] Lake Worth Pier, FL
06:14:07 INFO: [Land   ] Vaca Key, FL
06:14:18 INFO: [Water  ] Key West, FL
06:14:23 INFO: [Land   ] Naples, FL
06:14:28 INFO: [Land   ] Fort Myers, FL
06:14:33 INFO: [Land   ] Port Manatee, FL
06:14:38 INFO: [Land   ] St Petersburg, FL
06:14:48 INFO: [Water  ] Old Port Tampa, FL
06:14:53 INFO: [Water  ] Apalachicola, FL
06:15:00 INFO: [Water  ] Panama City, FL
06:15:11 INFO: [Land   ] Panama City Beach, FL
06:15:17 INFO: [Water  ] Pensacola, FL
06:15:23 INFO: [Land   ] Tolomato River station
06:15:29 INFO: [Water  ] Duck Key, FL
06:15:36 INFO: [Land   ] Broad River Lower, FL
06:15:43 INFO: [Land   ] Cherry Grove Pier, N. Myrtle Beach, SC
06:15:57 INFO: [Water  ] Gulf of Mexico station
06:16:04 INFO: [Land   ] Shell Point
06:16:11 INFO: [Land   ] Taylor River, FL
06:16:25 INFO: [Water  ] Redfish Pass station
06:16:30 INFO: [Water  ] Little Rabbit Key, FL
06:16:35 INFO: [Water  ] Peterson Key, FL
06:16:40 INFO: [Land   ] Fort Myers station
06:16:45 INFO: [Land   ] Highway Creek, FL
06:16:55 INFO: [Water  ] CORMP ILM2, Wrightsville Beach Nearshore, NC
06:17:00 INFO: [Water  ] Clear Water Pass, FL 
06:17:06 INFO: [Water  ] Tarpon Bay station
06:17:12 INFO: [Land   ] Gunboat Island, FL
06:17:20 INFO: [Land   ] Cannon Bay, FL
06:17:26 INFO: [Water  ] Murray Key, FL
06:17:31 INFO: [Land   ] Apache Pier, Myrtle Beach, SC
06:17:44 INFO: [Water  ] Butternut Key, FL
06:17:56 INFO: [Land   ] Shell Point station
06:18:09 INFO: [Water  ] Whipray Basin, FL
06:18:23 INFO: [Water  ] 2nd Ave North Pier, Myrtle Beach, SC
06:18:29 INFO: [Water  ] Garfield Bight, FL
06:18:35 INFO: [Land   ] Lane River, FL 
06:18:41 INFO: [Land   ] Little Blackwater, FL
06:18:48 INFO: [Water  ] Little Madeira, FL
06:19:00 INFO: [Water  ] St Lucie Inlet station
06:19:07 INFO: [Water  ] White Water -West, FL
06:19:13 INFO: [Land   ] fau_lobo_1
06:19:19 INFO: [Water  ] CORMP ILM3, Wrightsville Beach Offshore, NC
06:19:25 INFO: [Land   ] Broad River, FL
06:19:31 INFO: [Land   ] Willy Willy, FL
06:19:37 INFO: [Land   ] Cane Patch, FL
06:19:44 INFO: [Water  ] Sebastian Inlet met station
06:19:50 INFO: [Water  ] CAROCOOPS SUN2, Sunset Nearshore, NC
06:19:56 INFO: [Land   ] Bing&#39;s Landing station
06:20:02 INFO: [Water  ] Bob Allen, FL
06:20:09 INFO: [Land   ] Blackwater Sound, FL
06:20:15 INFO: [Land   ] Trout Cove, FL
06:20:22 INFO: [Water  ] Johnson Key, FL
06:23:03 INFO: Finished processing [COAWST_4]: http://crow.marine.usf.edu:8080/thredds/dodsC/WFS_SWAN_NF_model/USF_Ocean_Circulation_Group_West_Florida_Shelf_Daily_SWAN_Nowcast_Forecast_Wave_Model_Data_best.ncd

06:23:03 INFO: **** Downloading to file 2014-07-07/2014-07-07-ESPRESSO.nc *****
06:23:18 INFO: [Land   ] Duck, NC
06:23:24 INFO: [Water  ] Oregon Inlet Marina, NC
06:23:29 INFO: [Land   ] USCG Station Hatteras, NC
06:23:34 INFO: [Water  ] Beaufort, NC
06:23:34 INFO: [No Data] Wilmington, NC
06:23:34 INFO: [No Data] Wrightsville Beach, NC
06:23:34 INFO: [No Data] Springmaid Pier, SC
06:23:34 INFO: [No Data] Charleston, SC
06:23:34 INFO: [No Data] Fort Pulaski, GA
06:23:34 INFO: [No Data] Fernandina Beach, FL
06:23:34 INFO: [No Data] Mayport (Bar Pilots Dock), FL
06:23:34 INFO: [No Data] Dames Point, FL
06:23:34 INFO: [No Data] Jacksonville University, FL
06:23:34 INFO: [No Data] I-295 Bridge, St Johns River, FL
06:23:34 INFO: [No Data] Red Bay Point, St Johns River, FL
06:23:34 INFO: [No Data] Racy Point, St Johns River, FL
06:23:34 INFO: [No Data] Trident Pier, FL
06:23:34 INFO: [No Data] Lake Worth Pier, FL
06:23:34 INFO: [No Data] Vaca Key, FL
06:23:34 INFO: [No Data] Key West, FL
06:23:34 INFO: [No Data] Naples, FL
06:23:34 INFO: [No Data] Fort Myers, FL
06:23:34 INFO: [No Data] Port Manatee, FL
06:23:34 INFO: [No Data] St Petersburg, FL
06:23:34 INFO: [No Data] Old Port Tampa, FL
06:23:34 INFO: [No Data] Apalachicola, FL
06:23:34 INFO: [No Data] Panama City, FL
06:23:34 INFO: [No Data] Panama City Beach, FL
06:23:34 INFO: [No Data] Pensacola, FL
06:23:34 INFO: [No Data] Tolomato River station
06:23:34 INFO: [No Data] Duck Key, FL
06:23:34 INFO: [No Data] Broad River Lower, FL
06:23:34 INFO: [No Data] Cherry Grove Pier, N. Myrtle Beach, SC
06:23:34 INFO: [No Data] Gulf of Mexico station
06:23:34 INFO: [No Data] Shell Point
06:23:34 INFO: [No Data] Taylor River, FL
06:23:34 INFO: [No Data] Redfish Pass station
06:23:34 INFO: [No Data] Little Rabbit Key, FL
06:23:34 INFO: [No Data] Peterson Key, FL
06:23:34 INFO: [No Data] Fort Myers station
06:23:34 INFO: [No Data] Highway Creek, FL
06:23:34 INFO: [No Data] CORMP ILM2, Wrightsville Beach Nearshore, NC
06:23:34 INFO: [No Data] Clear Water Pass, FL 
06:23:34 INFO: [No Data] Tarpon Bay station
06:23:34 INFO: [No Data] Gunboat Island, FL
06:23:34 INFO: [No Data] Cannon Bay, FL
06:23:34 INFO: [No Data] Murray Key, FL
06:23:34 INFO: [No Data] Apache Pier, Myrtle Beach, SC
06:23:34 INFO: [No Data] Butternut Key, FL
06:23:34 INFO: [No Data] Shell Point station
06:23:34 INFO: [No Data] Whipray Basin, FL
06:23:34 INFO: [No Data] 2nd Ave North Pier, Myrtle Beach, SC
06:23:34 INFO: [No Data] Garfield Bight, FL
06:23:34 INFO: [No Data] Lane River, FL 
06:23:34 INFO: [No Data] Little Blackwater, FL
06:23:34 INFO: [No Data] Little Madeira, FL
06:23:34 INFO: [No Data] St Lucie Inlet station
06:23:34 INFO: [No Data] White Water -West, FL
06:23:34 INFO: [No Data] fau_lobo_1
06:23:34 INFO: [No Data] CORMP ILM3, Wrightsville Beach Offshore, NC
06:23:34 INFO: [No Data] Broad River, FL
06:23:34 INFO: [No Data] Willy Willy, FL
06:23:34 INFO: [No Data] Cane Patch, FL
06:23:34 INFO: [No Data] Sebastian Inlet met station
06:23:34 INFO: [No Data] CAROCOOPS SUN2, Sunset Nearshore, NC
06:23:34 INFO: [No Data] Bing&#39;s Landing station
06:23:34 INFO: [No Data] Bob Allen, FL
06:23:34 INFO: [No Data] Blackwater Sound, FL
06:23:34 INFO: [No Data] Trout Cove, FL
06:23:34 INFO: [No Data] Johnson Key, FL
06:23:38 INFO: Finished processing [ESPRESSO]: http://crow.marine.usf.edu:8080/thredds/dodsC/WFS_SWAN_NF_model/USF_Ocean_Circulation_Group_West_Florida_Shelf_Daily_SWAN_Nowcast_Forecast_Wave_Model_Data_best.ncd

06:23:38 INFO: ****** Downloading to file 2014-07-07/2014-07-07-NOAA.nc *******
06:23:38 INFO: [No Data] Duck, NC
06:23:38 INFO: [No Data] Oregon Inlet Marina, NC
06:23:38 INFO: [No Data] USCG Station Hatteras, NC
06:23:38 INFO: [No Data] Beaufort, NC
06:23:38 INFO: [No Data] Wilmington, NC
06:23:38 INFO: [No Data] Wrightsville Beach, NC
06:23:38 INFO: [No Data] Springmaid Pier, SC
06:23:38 INFO: [No Data] Charleston, SC
06:23:38 INFO: [No Data] Fort Pulaski, GA
06:23:38 INFO: [No Data] Fernandina Beach, FL
06:23:38 INFO: [No Data] Mayport (Bar Pilots Dock), FL
06:23:38 INFO: [No Data] Dames Point, FL
06:23:38 INFO: [No Data] Jacksonville University, FL
06:23:38 INFO: [No Data] I-295 Bridge, St Johns River, FL
06:23:38 INFO: [No Data] Red Bay Point, St Johns River, FL
06:23:38 INFO: [No Data] Racy Point, St Johns River, FL
06:23:38 INFO: [No Data] Trident Pier, FL
06:23:38 INFO: [No Data] Lake Worth Pier, FL
06:23:38 INFO: [No Data] Vaca Key, FL
06:23:38 INFO: [No Data] Key West, FL
06:23:38 INFO: [No Data] Naples, FL
06:23:38 INFO: [No Data] Fort Myers, FL
06:23:38 INFO: [No Data] Port Manatee, FL
06:23:38 INFO: [No Data] St Petersburg, FL
06:23:38 INFO: [No Data] Old Port Tampa, FL
06:23:38 INFO: [No Data] Apalachicola, FL
06:23:38 INFO: [No Data] Panama City, FL
06:23:38 INFO: [No Data] Panama City Beach, FL
06:23:38 INFO: [No Data] Pensacola, FL
06:23:38 INFO: [No Data] Tolomato River station
06:23:38 INFO: [No Data] Duck Key, FL
06:23:38 INFO: [No Data] Broad River Lower, FL
06:23:38 INFO: [No Data] Cherry Grove Pier, N. Myrtle Beach, SC
06:23:38 INFO: [No Data] Gulf of Mexico station
06:23:38 INFO: [No Data] Shell Point
06:23:38 INFO: [No Data] Taylor River, FL
06:23:38 INFO: [No Data] Redfish Pass station
06:23:38 INFO: [No Data] Little Rabbit Key, FL
06:23:38 INFO: [No Data] Peterson Key, FL
06:23:38 INFO: [No Data] Fort Myers station
06:23:38 INFO: [No Data] Highway Creek, FL
06:23:38 INFO: [No Data] CORMP ILM2, Wrightsville Beach Nearshore, NC
06:23:38 INFO: [No Data] Clear Water Pass, FL 
06:23:38 INFO: [No Data] Tarpon Bay station
06:23:38 INFO: [No Data] Gunboat Island, FL
06:23:38 INFO: [No Data] Cannon Bay, FL
06:23:38 INFO: [No Data] Murray Key, FL
06:23:38 INFO: [No Data] Apache Pier, Myrtle Beach, SC
06:23:38 INFO: [No Data] Butternut Key, FL
06:23:44 INFO: [Land   ] Shell Point station
06:23:44 INFO: [No Data] Whipray Basin, FL
06:23:44 INFO: [No Data] 2nd Ave North Pier, Myrtle Beach, SC
06:23:44 INFO: [No Data] Garfield Bight, FL
06:23:44 INFO: [No Data] Lane River, FL 
06:23:44 INFO: [No Data] Little Blackwater, FL
06:23:44 INFO: [No Data] Little Madeira, FL
06:23:44 INFO: [No Data] St Lucie Inlet station
06:23:44 INFO: [No Data] White Water -West, FL
06:23:44 INFO: [No Data] fau_lobo_1
06:23:44 INFO: [No Data] CORMP ILM3, Wrightsville Beach Offshore, NC
06:23:47 INFO: [Land   ] Broad River, FL
06:23:47 INFO: [No Data] Willy Willy, FL
06:23:47 INFO: [No Data] Cane Patch, FL
06:23:47 INFO: [No Data] Sebastian Inlet met station
06:23:47 INFO: [No Data] CAROCOOPS SUN2, Sunset Nearshore, NC
06:23:47 INFO: [No Data] Bing&#39;s Landing station
06:23:47 INFO: [No Data] Bob Allen, FL
06:23:47 INFO: [No Data] Blackwater Sound, FL
06:23:47 INFO: [No Data] Trout Cove, FL
06:23:47 INFO: [No Data] Johnson Key, FL
06:23:47 INFO: Finished processing [NOAA]: http://crow.marine.usf.edu:8080/thredds/dodsC/WFS_SWAN_NF_model/USF_Ocean_Circulation_Group_West_Florida_Shelf_Daily_SWAN_Nowcast_Forecast_Wave_Model_Data_best.ncd

06:23:49 WARNING: /home/filipe/miniconda/envs/SECOORA/lib/python2.7/site-packages/numpy/core/_methods.py:59: RuntimeWarning: Mean of empty slice.
  warnings.warn("Mean of empty slice.", RuntimeWarning)

06:24:13 INFO: 58.55 minutes
06:24:13 INFO: EOF
