01:17:20 INFO: *********************** Run information ************************
01:17:20 INFO: Run date: 2015-02-11 16:17:20
01:17:20 INFO: Download start: 2014-06-30 12:00:00
01:17:20 INFO: Download stop: 2014-07-07 12:00:00
01:17:20 INFO: Bounding box: -87.40, 24.25,-74.70, 36.70
01:17:20 INFO: *********************** Software version ***********************
01:17:20 INFO: Iris version: 1.7.2-DEV
01:17:20 INFO: owslib version: 0.8-dev
01:17:20 INFO: pyoos version: 0.6.2
01:17:31 INFO: ********************* Catalog information **********************
01:17:31 INFO: URL: http://www.ngdc.noaa.gov/geoportal/csw
01:17:31 INFO: CSW version: 2.0.2
01:17:31 INFO: Number of datasets available: 43
01:17:31 INFO: ***************************** CSW ******************************
01:17:31 INFO: USF FVCOM - Nowcast Aggregation
01:17:31 INFO: ROMS/TOMS 3.0 - New Floria Shelf Application
01:17:31 INFO: ROMS/TOMS 3.0 - South-Atlantic Bight and Gulf of Mexico
01:17:31 INFO: COAWST Forecast System : USGS : US East Coast and Gulf of Mexico (Experimental)
01:17:31 INFO: Directional wave and sea surface temperature measurements collected in situ by Datawell Mark 3 directional buoy located near MONTEREY CANYON OUTER, CA from 2013/07/11 17:00:00 to 2014/07/01 20:59:59.
01:17:31 INFO: Directional wave and sea surface temperature measurements collected in situ by Datawell Mark 3 directional buoy located near MONTEREY BAY WEST, CA from 2013/06/19 18:00:00 to 2014/07/01 14:59:59.
01:17:31 INFO: Directional wave and sea surface temperature measurements collected in situ by Datawell Mark 3 directional buoy located near MONTEREY BAY WEST, CA from 2014/07/01 19:00:00 to 2014/10/04 23:59:59.
01:17:31 INFO: Directional wave and sea surface temperature measurements collected in situ by Datawell Mark 3 directional buoy located near SAN FRANCISCO BAR, CA from 2013/06/19 22:00:00 to 2014/07/24 14:59:59.
01:17:31 INFO: Directional wave and sea surface temperature measurements collected in situ by Datawell Mark 3 directional buoy located near POINT REYES, CA from 2013/10/16 21:00:00 to 2014/09/05 11:59:59.
01:17:31 INFO: Directional wave and sea surface temperature measurements collected in situ by Datawell Mark 3 directional buoy located near HUMBOLDT BAY NORTH SPIT, CA from 2013/08/26 19:00:00 to 2014/07/24 03:59:59.
01:17:31 INFO: Directional wave and sea surface temperature measurements collected in situ by Datawell Mark 3 directional buoy located near DIABLO CANYON, CA from 2013/08/28 23:00:00 to 2014/10/29 16:59:59.
01:17:31 INFO: Directional wave and sea surface temperature measurements collected in situ by Datawell Mark 3 directional buoy located near CLATSOP SPIT, OR from 2013/07/18 20:00:00 to 2015/01/12 18:59:59.
01:17:31 INFO: Directional wave and sea surface temperature measurements collected in situ by Datawell Mark 3 directional buoy located near ASTORIA CANYON, OR from 2014/01/16 20:00:00 to 2014/09/29 22:59:59.
01:17:31 INFO: Directional wave and sea surface temperature measurements collected in situ by Datawell Mark 3 directional buoy located near GRAYS HARBOR, WA from 2013/10/13 19:00:00 to 2015/01/28 15:59:59.
01:17:31 INFO: Directional wave and sea surface temperature measurements collected in situ by Datawell Waverider buoys located near SAN FRANCISCO BAR, CA from 2007/07/25 to 2014/07/24.
01:17:31 INFO: Directional wave and sea surface temperature measurements collected in situ by Datawell Mark 3 directional buoy located near SANTA CRUZ BASIN, CA from 2013/07/09 15:00:00 to 2014/07/14 16:59:59.
01:17:31 INFO: Directional wave and sea surface temperature measurements collected in situ by Datawell Mark 3 directional buoy located near OCEAN STATION PAPA from 2012/10/04 21:00:00 to 2015/01/01 00:59:59.
01:17:31 INFO: Directional wave and sea surface temperature measurements collected in situ by Datawell Mark 3 directional buoy located near CAMP PENDLETON NEARSHORE, CA from 2014/04/24 22:00:00 to 2014/06/06 16:59:59.
01:17:31 INFO: Directional wave and sea surface temperature measurements collected in situ by Datawell Mark 3 directional buoy located near CAMP PENDLETON NEARSHORE, CA from 2014/06/16 21:00:00 to 2015/01/23 12:59:59.
01:17:31 INFO: Directional wave and sea surface temperature measurements collected in situ by Datawell Mark 3 directional buoy located near SAN NICOLAS ISLAND, CA from 2013/04/19 17:00:00 to 2014/06/08 21:59:59.
01:17:31 INFO: Directional wave and sea surface temperature measurements collected in situ by Datawell Mark 3 directional buoy located near TORREY PINES OUTER, CA from 2014/06/10 21:00:00 to 2014/06/12 15:59:59.
01:17:31 INFO: Directional wave and sea surface temperature measurements collected in situ by Datawell Mark 3 directional buoy located near SCRIPPS NEARSHORE, CA from 2013/07/12 20:00:00 to 2015/01/07 17:59:59.
01:17:31 INFO: Directional wave and sea surface temperature measurements collected in situ by Datawell Mark 3 directional buoy located near MISSION BAY OFFSHORE, CA from 2014/04/28 21:00:00 to 2014/06/24 09:59:59.
01:17:31 INFO: Directional wave and sea surface temperature measurements collected in situ by Datawell Waverider buoys located near OCEANSIDE OFFSHORE, CA from 1997/05/19 to 2014/10/14.
01:17:31 INFO: Directional wave and sea surface temperature measurements collected in situ by Datawell Mark 3 directional buoy located near POINT LOMA SOUTH, CA from 2013/08/12 20:00:00 to 2014/09/10 07:59:59.
01:17:31 INFO: Directional wave and sea surface temperature measurements collected in situ by Datawell Waverider buoys located near MOKAPU POINT, HI from 2000/08/09 to 2014/09/10.
01:17:31 INFO: Directional wave and sea surface temperature measurements collected in situ by Datawell Waverider buoys located near TORREY PINES OUTER, CA from 2001/01/30 to 2014/06/06.
01:17:31 INFO: ROMS ESPRESSO Real-Time Operational IS4DVAR Forecast System Version 2 (NEW) 2013-present FMRC History (Best)
01:17:31 INFO: Directional wave and sea surface temperature measurements collected in situ by Datawell Waverider buoys located near SAN NICOLAS ISLAND, CA from 1991/09/10 to 2014/06/08.
01:17:31 INFO: Directional wave and sea surface temperature measurements collected in situ by Datawell Mark 3 directional buoy located near FERNANDINA BEACH, FL from 2013/12/17 18:00:00 to 2015/01/29 16:59:59.
01:17:31 INFO: NDBC Standard Meteorological Buoy Data
01:17:31 INFO: Directional wave and sea surface temperature measurements collected in situ by Datawell Waverider buoys located near POINT REYES, CA from 1996/12/06 to 2014/09/05.
01:17:31 INFO: HYbrid Coordinate Ocean Model (HYCOM): Global
01:17:31 INFO: National Data Buoy Center SOS
01:17:31 INFO: G1SST, 1km blended SST
01:17:31 INFO: NOAA Coral Reef Watch Operational Twice-Weekly Near-Real-Time Global 50km Satellite Coral Bleaching Monitoring Products
01:17:31 INFO: Directional wave and sea surface temperature measurements collected in situ by Datawell Mark 3 directional buoy located near MASONBORO INLET, ILM2, NC from 2014/03/14 16:00:00 to 2015/01/06 13:59:59.where the water depth is approximately
01:17:31 INFO: Directional wave and sea surface temperature measurements collected in situ by Datawell Mark 3 directional buoy located near OREGON INLET, NC from 2013/07/17 17:00:00 to 2015/02/01 16:59:59.
01:17:31 INFO: Directional wave and sea surface temperature measurements collected in situ by Datawell Waverider buoys located near FERNANDINA BEACH, FL from 2006/02/09 to 2015/01/29.
01:17:31 INFO: Directional wave and sea surface temperature measurements collected in situ by Datawell Waverider buoys located near MASONBORO INLET, ILM2, NC from 2008/05/07 to 2015/01/06.
01:17:31 INFO: Directional wave and sea surface temperature measurements collected in situ by Datawell Waverider buoys located near OREGON INLET, NC from 2012/04/08 to 2015/02/01.
01:17:31 INFO: Directional wave and sea surface temperature measurements collected in situ by Datawell Waverider buoys located near NEW RIVER INLET, NC from 2012/04/14 to 2014/07/11.
01:17:31 INFO: Directional wave and sea surface temperature measurements collected in situ by Datawell Mark 3 directional buoy located near NEW RIVER INLET, NC from 2014/03/09 19:00:00 to 2014/07/11 23:59:59.
01:17:31 INFO: ***************************** DAP ******************************
01:17:31 INFO: http://crow.marine.usf.edu:8080/thredds/dodsC/FVCOM-Nowcast-Agg.nc.html
01:17:31 INFO: http://crow.marine.usf.edu:8080/thredds/dodsC/WFS_ROMS_NF_model/USF_Ocean_Circulation_Group_West_Florida_Shelf_Daily_ROMS_Nowcast_Forecast_Model_Data_best.ncd.html
01:17:31 INFO: http://geoport.whoi.edu/thredds/dodsC/coawst_4/use/fmrc/coawst_4_use_best.ncd.html
01:17:31 INFO: http://omgsrv1.meas.ncsu.edu:8080/thredds/dodsC/fmrc/sabgom/SABGOM_Forecast_Model_Run_Collection_best.ncd.html
01:17:31 INFO: http://oos.soest.hawaii.edu/thredds/dodsC/hioos/satellite/dhw.html
01:17:31 INFO: http://oos.soest.hawaii.edu/thredds/dodsC/pacioos/hycom/global.html
01:17:31 INFO: http://tds.marine.rutgers.edu/thredds/dodsC/roms/espresso/2013_da/his_Best/ESPRESSO_Real-Time_v2_History_Best_Available_best.ncd.html
01:17:31 INFO: http://thredds.axiomalaska.com/thredds/dodsC/G1_SST_GLOBAL.nc.html
01:17:31 INFO: http://thredds.cdip.ucsd.edu/thredds/dodsC/cdip/archive/029p1/029p1_d19.nc.html
01:17:31 INFO: http://thredds.cdip.ucsd.edu/thredds/dodsC/cdip/archive/029p1/029p1_historic.nc.html
01:17:31 INFO: http://thredds.cdip.ucsd.edu/thredds/dodsC/cdip/archive/036p1/036p1_d40.nc.html
01:17:31 INFO: http://thredds.cdip.ucsd.edu/thredds/dodsC/cdip/archive/043p1/043p1_d16.nc.html
01:17:31 INFO: http://thredds.cdip.ucsd.edu/thredds/dodsC/cdip/archive/043p1/043p1_d17.nc.html
01:17:31 INFO: http://thredds.cdip.ucsd.edu/thredds/dodsC/cdip/archive/045p1/045p1_historic.nc.html
01:17:31 INFO: http://thredds.cdip.ucsd.edu/thredds/dodsC/cdip/archive/067p1/067p1_d22.nc.html
01:17:31 INFO: http://thredds.cdip.ucsd.edu/thredds/dodsC/cdip/archive/067p1/067p1_historic.nc.html
01:17:31 INFO: http://thredds.cdip.ucsd.edu/thredds/dodsC/cdip/archive/076p1/076p1_d27.nc.html
01:17:31 INFO: http://thredds.cdip.ucsd.edu/thredds/dodsC/cdip/archive/093p1/093p1_d40.nc.html
01:17:31 INFO: http://thredds.cdip.ucsd.edu/thredds/dodsC/cdip/archive/098p1/098p1_historic.nc.html
01:17:31 INFO: http://thredds.cdip.ucsd.edu/thredds/dodsC/cdip/archive/100p1/100p1_d13.nc.html
01:17:31 INFO: http://thredds.cdip.ucsd.edu/thredds/dodsC/cdip/archive/100p1/100p1_historic.nc.html
01:17:31 INFO: http://thredds.cdip.ucsd.edu/thredds/dodsC/cdip/archive/132p1/132p1_d11.nc.html
01:17:31 INFO: http://thredds.cdip.ucsd.edu/thredds/dodsC/cdip/archive/132p1/132p1_historic.nc.html
01:17:31 INFO: http://thredds.cdip.ucsd.edu/thredds/dodsC/cdip/archive/142p1/142p1_d14.nc.html
01:17:31 INFO: http://thredds.cdip.ucsd.edu/thredds/dodsC/cdip/archive/142p1/142p1_historic.nc.html
01:17:31 INFO: http://thredds.cdip.ucsd.edu/thredds/dodsC/cdip/archive/150p1/150p1_d07.nc.html
01:17:31 INFO: http://thredds.cdip.ucsd.edu/thredds/dodsC/cdip/archive/150p1/150p1_historic.nc.html
01:17:31 INFO: http://thredds.cdip.ucsd.edu/thredds/dodsC/cdip/archive/156p1/156p1_d07.nc.html
01:17:31 INFO: http://thredds.cdip.ucsd.edu/thredds/dodsC/cdip/archive/162p1/162p1_d04.nc.html
01:17:31 INFO: http://thredds.cdip.ucsd.edu/thredds/dodsC/cdip/archive/166p1/166p1_d02.nc.html
01:17:31 INFO: http://thredds.cdip.ucsd.edu/thredds/dodsC/cdip/archive/168p1/168p1_d05.nc.html
01:17:31 INFO: http://thredds.cdip.ucsd.edu/thredds/dodsC/cdip/archive/179p1/179p1_d04.nc.html
01:17:31 INFO: http://thredds.cdip.ucsd.edu/thredds/dodsC/cdip/archive/185p1/185p1_d02.nc.html
01:17:31 INFO: http://thredds.cdip.ucsd.edu/thredds/dodsC/cdip/archive/185p1/185p1_d03.nc.html
01:17:31 INFO: http://thredds.cdip.ucsd.edu/thredds/dodsC/cdip/archive/190p1/190p1_d02.nc.html
01:17:31 INFO: http://thredds.cdip.ucsd.edu/thredds/dodsC/cdip/archive/190p1/190p1_historic.nc.html
01:17:31 INFO: http://thredds.cdip.ucsd.edu/thredds/dodsC/cdip/archive/191p1/191p1_d12.nc.html
01:17:31 INFO: http://thredds.cdip.ucsd.edu/thredds/dodsC/cdip/archive/192p1/192p1_d02.nc.html
01:17:31 INFO: http://thredds.cdip.ucsd.edu/thredds/dodsC/cdip/archive/192p1/192p1_historic.nc.html
01:17:31 INFO: http://thredds.cdip.ucsd.edu/thredds/dodsC/cdip/archive/201p1/201p1_d02.nc.html
01:17:31 INFO: http://thredds.cdip.ucsd.edu/thredds/dodsC/cdip/archive/203p1/203p1_d01.nc.html
01:17:31 INFO: ***************************** SOS ******************************
01:17:31 INFO: http://sdf.ndbc.noaa.gov/sos/server.php?service=SOS&request=GetCapabilities&acceptVersions=1.0.0
01:17:31 INFO: http://thredds.cdip.ucsd.edu/thredds/sos/cdip/archive/029p1/029p1_d19.nc?service=SOS&version=1.0.0&request=GetCapabilities
01:17:31 INFO: http://thredds.cdip.ucsd.edu/thredds/sos/cdip/archive/029p1/029p1_historic.nc?service=SOS&version=1.0.0&request=GetCapabilities
01:17:31 INFO: http://thredds.cdip.ucsd.edu/thredds/sos/cdip/archive/036p1/036p1_d40.nc?service=SOS&version=1.0.0&request=GetCapabilities
01:17:31 INFO: http://thredds.cdip.ucsd.edu/thredds/sos/cdip/archive/043p1/043p1_d16.nc?service=SOS&version=1.0.0&request=GetCapabilities
01:17:31 INFO: http://thredds.cdip.ucsd.edu/thredds/sos/cdip/archive/043p1/043p1_d17.nc?service=SOS&version=1.0.0&request=GetCapabilities
01:17:31 INFO: http://thredds.cdip.ucsd.edu/thredds/sos/cdip/archive/045p1/045p1_historic.nc?service=SOS&version=1.0.0&request=GetCapabilities
01:17:31 INFO: http://thredds.cdip.ucsd.edu/thredds/sos/cdip/archive/067p1/067p1_d22.nc?service=SOS&version=1.0.0&request=GetCapabilities
01:17:31 INFO: http://thredds.cdip.ucsd.edu/thredds/sos/cdip/archive/067p1/067p1_historic.nc?service=SOS&version=1.0.0&request=GetCapabilities
01:17:31 INFO: http://thredds.cdip.ucsd.edu/thredds/sos/cdip/archive/076p1/076p1_d27.nc?service=SOS&version=1.0.0&request=GetCapabilities
01:17:31 INFO: http://thredds.cdip.ucsd.edu/thredds/sos/cdip/archive/093p1/093p1_d40.nc?service=SOS&version=1.0.0&request=GetCapabilities
01:17:31 INFO: http://thredds.cdip.ucsd.edu/thredds/sos/cdip/archive/098p1/098p1_historic.nc?service=SOS&version=1.0.0&request=GetCapabilities
01:17:31 INFO: http://thredds.cdip.ucsd.edu/thredds/sos/cdip/archive/100p1/100p1_d13.nc?service=SOS&version=1.0.0&request=GetCapabilities
01:17:31 INFO: http://thredds.cdip.ucsd.edu/thredds/sos/cdip/archive/100p1/100p1_historic.nc?service=SOS&version=1.0.0&request=GetCapabilities
01:17:31 INFO: http://thredds.cdip.ucsd.edu/thredds/sos/cdip/archive/132p1/132p1_d11.nc?service=SOS&version=1.0.0&request=GetCapabilities
01:17:31 INFO: http://thredds.cdip.ucsd.edu/thredds/sos/cdip/archive/132p1/132p1_historic.nc?service=SOS&version=1.0.0&request=GetCapabilities
01:17:31 INFO: http://thredds.cdip.ucsd.edu/thredds/sos/cdip/archive/142p1/142p1_d14.nc?service=SOS&version=1.0.0&request=GetCapabilities
01:17:31 INFO: http://thredds.cdip.ucsd.edu/thredds/sos/cdip/archive/142p1/142p1_historic.nc?service=SOS&version=1.0.0&request=GetCapabilities
01:17:31 INFO: http://thredds.cdip.ucsd.edu/thredds/sos/cdip/archive/150p1/150p1_d07.nc?service=SOS&version=1.0.0&request=GetCapabilities
01:17:31 INFO: http://thredds.cdip.ucsd.edu/thredds/sos/cdip/archive/150p1/150p1_historic.nc?service=SOS&version=1.0.0&request=GetCapabilities
01:17:31 INFO: http://thredds.cdip.ucsd.edu/thredds/sos/cdip/archive/156p1/156p1_d07.nc?service=SOS&version=1.0.0&request=GetCapabilities
01:17:31 INFO: http://thredds.cdip.ucsd.edu/thredds/sos/cdip/archive/162p1/162p1_d04.nc?service=SOS&version=1.0.0&request=GetCapabilities
01:17:31 INFO: http://thredds.cdip.ucsd.edu/thredds/sos/cdip/archive/166p1/166p1_d02.nc?service=SOS&version=1.0.0&request=GetCapabilities
01:17:31 INFO: http://thredds.cdip.ucsd.edu/thredds/sos/cdip/archive/168p1/168p1_d05.nc?service=SOS&version=1.0.0&request=GetCapabilities
01:17:31 INFO: http://thredds.cdip.ucsd.edu/thredds/sos/cdip/archive/179p1/179p1_d04.nc?service=SOS&version=1.0.0&request=GetCapabilities
01:17:31 INFO: http://thredds.cdip.ucsd.edu/thredds/sos/cdip/archive/185p1/185p1_d02.nc?service=SOS&version=1.0.0&request=GetCapabilities
01:17:31 INFO: http://thredds.cdip.ucsd.edu/thredds/sos/cdip/archive/185p1/185p1_d03.nc?service=SOS&version=1.0.0&request=GetCapabilities
01:17:31 INFO: http://thredds.cdip.ucsd.edu/thredds/sos/cdip/archive/190p1/190p1_d02.nc?service=SOS&version=1.0.0&request=GetCapabilities
01:17:31 INFO: http://thredds.cdip.ucsd.edu/thredds/sos/cdip/archive/190p1/190p1_historic.nc?service=SOS&version=1.0.0&request=GetCapabilities
01:17:31 INFO: http://thredds.cdip.ucsd.edu/thredds/sos/cdip/archive/191p1/191p1_d12.nc?service=SOS&version=1.0.0&request=GetCapabilities
01:17:31 INFO: http://thredds.cdip.ucsd.edu/thredds/sos/cdip/archive/192p1/192p1_d02.nc?service=SOS&version=1.0.0&request=GetCapabilities
01:17:31 INFO: http://thredds.cdip.ucsd.edu/thredds/sos/cdip/archive/192p1/192p1_historic.nc?service=SOS&version=1.0.0&request=GetCapabilities
01:17:31 INFO: http://thredds.cdip.ucsd.edu/thredds/sos/cdip/archive/201p1/201p1_d02.nc?service=SOS&version=1.0.0&request=GetCapabilities
01:17:31 INFO: http://thredds.cdip.ucsd.edu/thredds/sos/cdip/archive/203p1/203p1_d01.nc?service=SOS&version=1.0.0&request=GetCapabilities
01:17:31 WARNING: USEAST not in the NGDC csw
01:17:31 WARNING: USF_SWAN not in the NGDC csw
01:17:43 WARNING: /home/filipe/miniconda/envs/SECOORA/lib/python2.7/site-packages/iris/fileformats/_pyke_rules/compiled_krb/fc_rules_cf_fc.py:1359: UserWarning: Failed to create 'time' dimension coordinate: The points array must be strictly monotonic.
Gracefully creating 'time' auxiliary coordinate instead.
  error=e_msg))

01:17:47 WARNING: Cannot get cube for: http://129.252.139.124/thredds/dodsC/usf.nfb.ngwlms.nc
Cube does not contain ['sea_water_temperature', 'sea_surface_temperature', 'sea_water_potential_temperature', 'equivalent_potential_temperature', 'sea_water_conservative_temperature', 'pseudo_equivalent_potential_temperature']
01:17:51 WARNING: Cannot get cube for: http://129.252.139.124/thredds/dodsC/usf.tas.ngwlms.nc
Cube does not contain ['sea_water_temperature', 'sea_surface_temperature', 'sea_water_potential_temperature', 'equivalent_potential_temperature', 'sea_water_conservative_temperature', 'pseudo_equivalent_potential_temperature']
01:18:03 WARNING: Cannot get cube for: http://129.252.139.124/thredds/dodsC/usf.apk.ngwlms.nc
Cube does not contain ['sea_water_temperature', 'sea_surface_temperature', 'sea_water_potential_temperature', 'equivalent_potential_temperature', 'sea_water_conservative_temperature', 'pseudo_equivalent_potential_temperature']
01:18:08 WARNING: Cannot get cube for: http://129.252.139.124/thredds/dodsC/usf.c21.weatherpak.nc
Cube does not contain ['sea_water_temperature', 'sea_surface_temperature', 'sea_water_potential_temperature', 'equivalent_potential_temperature', 'sea_water_conservative_temperature', 'pseudo_equivalent_potential_temperature']
01:18:17 WARNING: Cannot get cube for: http://129.252.139.124/thredds/dodsC/usf.bcp.ngwlms.nc
Cube does not contain ['sea_water_temperature', 'sea_surface_temperature', 'sea_water_potential_temperature', 'equivalent_potential_temperature', 'sea_water_conservative_temperature', 'pseudo_equivalent_potential_temperature']
01:18:33 WARNING: Cannot get cube for: http://129.252.139.124/thredds/dodsC/usf.fhp.ngwlms.nc
Cube does not contain ['sea_water_temperature', 'sea_surface_temperature', 'sea_water_potential_temperature', 'equivalent_potential_temperature', 'sea_water_conservative_temperature', 'pseudo_equivalent_potential_temperature']
01:18:36 WARNING: Cannot get cube for: http://129.252.139.124/thredds/dodsC/usf.c10.mcat.nc
istart must be different from istop! Got istart 48233 and  istop 48233
01:18:39 WARNING: Cannot get cube for: http://129.252.139.124/thredds/dodsC/usf.c12.mcat.nc
istart must be different from istop! Got istart 18711 and  istop 18711
01:18:41 WARNING: Cannot get cube for: http://129.252.139.124/thredds/dodsC/usf.c13.mcat.nc
istart must be different from istop! Got istart 18099 and  istop 18099
01:18:46 WARNING: Cannot get cube for: http://129.252.139.124/thredds/dodsC/usf.c10.mcat_2011.nc
istart must be different from istop! Got istart 26303 and  istop 26303
01:18:52 WARNING: Cannot get cube for: http://129.252.139.124/thredds/dodsC/usf.c12.mcat_2011.nc
istart must be different from istop! Got istart 26303 and  istop 26303
01:18:57 WARNING: Cannot get cube for: http://129.252.139.124/thredds/dodsC/usf.c13.mcat_2011.nc
istart must be different from istop! Got istart 26303 and  istop 26303
01:19:10 WARNING: Cannot get cube for: http://129.252.139.124/thredds/dodsC/carocoops.frp2.buoy.nc
Cube does not contain ['sea_water_temperature', 'sea_surface_temperature', 'sea_water_potential_temperature', 'equivalent_potential_temperature', 'sea_water_conservative_temperature', 'pseudo_equivalent_potential_temperature']
01:19:13 WARNING: Cannot get cube for: http://129.252.139.124/thredds/dodsC/carocoops.cap2.buoy.nc
Cube does not contain ['sea_water_temperature', 'sea_surface_temperature', 'sea_water_potential_temperature', 'equivalent_potential_temperature', 'sea_water_conservative_temperature', 'pseudo_equivalent_potential_temperature']
01:19:25 WARNING: Cannot get cube for: http://129.252.139.124/thredds/dodsC/cormp.ilm1.buoy.nc
istart must be different from istop! Got istart 1443 and  istop 1443
01:19:30 WARNING: Cannot get cube for: http://129.252.139.124/thredds/dodsC/cormp.lej3.buoy.nc
istart must be different from istop! Got istart 91490 and  istop 91490
01:19:32 WARNING: /home/filipe/miniconda/envs/SECOORA/lib/python2.7/site-packages/iris/fileformats/_pyke_rules/compiled_krb/fc_rules_cf_fc.py:1196: UserWarning: Ignoring netCDF variable 'dissolved_oxygen_saturation' invalid units 'mg_L-1'
  warnings.warn(msg.format(msg_name, msg_units))

01:19:33 WARNING: /home/filipe/miniconda/envs/SECOORA/lib/python2.7/site-packages/iris/fileformats/_pyke_rules/compiled_krb/fc_rules_cf_fc.py:1196: UserWarning: Ignoring netCDF variable 'dissolved_oxygen' invalid units 'mg_L-1'
  warnings.warn(msg.format(msg_name, msg_units))

01:19:33 WARNING: /home/filipe/miniconda/envs/SECOORA/lib/python2.7/site-packages/iris/fileformats/_pyke_rules/compiled_krb/fc_rules_cf_fc.py:1196: UserWarning: Ignoring netCDF variable 'cdom' invalid units 'QSDE'
  warnings.warn(msg.format(msg_name, msg_units))

01:19:33 WARNING: /home/filipe/miniconda/envs/SECOORA/lib/python2.7/site-packages/iris/fileformats/_pyke_rules/compiled_krb/fc_rules_cf_fc.py:1196: UserWarning: Ignoring netCDF variable 'turbidity' invalid units 'ntu'
  warnings.warn(msg.format(msg_name, msg_units))

01:19:33 WARNING: /home/filipe/miniconda/envs/SECOORA/lib/python2.7/site-packages/iris/fileformats/_pyke_rules/compiled_krb/fc_rules_cf_fc.py:1196: UserWarning: Ignoring netCDF variable 'conductivity' invalid units 'mS_cm-1'
  warnings.warn(msg.format(msg_name, msg_units))

01:19:35 WARNING: /home/filipe/miniconda/envs/SECOORA/lib/python2.7/site-packages/iris/fileformats/_pyke_rules/compiled_krb/fc_rules_cf_fc.py:1196: UserWarning: Ignoring netCDF variable 'nitrate' invalid units 'uM'
  warnings.warn(msg.format(msg_name, msg_units))

01:19:49 WARNING: /home/filipe/miniconda/envs/SECOORA/lib/python2.7/site-packages/iris/fileformats/_pyke_rules/compiled_krb/fc_rules_cf_fc.py:1196: UserWarning: Ignoring netCDF variable 'conductivity_2' invalid units 'mS_cm-1'
  warnings.warn(msg.format(msg_name, msg_units))

01:19:53 WARNING: Cannot get cube for: http://129.252.139.124/thredds/dodsC/fldep.poncedeleonsouth..nc
Cube does not contain ['sea_water_temperature', 'sea_surface_temperature', 'sea_water_potential_temperature', 'equivalent_potential_temperature', 'sea_water_conservative_temperature', 'pseudo_equivalent_potential_temperature']
01:19:59 WARNING: Cannot get cube for: http://129.252.139.124/thredds/dodsC/fldep.redbaypoint..nc
Cube does not contain ['sea_water_temperature', 'sea_surface_temperature', 'sea_water_potential_temperature', 'equivalent_potential_temperature', 'sea_water_conservative_temperature', 'pseudo_equivalent_potential_temperature']
01:20:09 WARNING: Cannot get cube for: http://129.252.139.124/thredds/dodsC/fldep.naplesbay..nc
Cube does not contain ['sea_water_temperature', 'sea_surface_temperature', 'sea_water_potential_temperature', 'equivalent_potential_temperature', 'sea_water_conservative_temperature', 'pseudo_equivalent_potential_temperature']
01:20:13 WARNING: Cannot get cube for: http://129.252.139.124/thredds/dodsC/fldep.gordonriverinlet..nc
Cube does not contain ['sea_water_temperature', 'sea_surface_temperature', 'sea_water_potential_temperature', 'equivalent_potential_temperature', 'sea_water_conservative_temperature', 'pseudo_equivalent_potential_temperature']
01:20:18 WARNING: Cannot get cube for: http://129.252.139.124/thredds/dodsC/fldep.melbourne..nc
Cube does not contain ['sea_water_temperature', 'sea_surface_temperature', 'sea_water_potential_temperature', 'equivalent_potential_temperature', 'sea_water_conservative_temperature', 'pseudo_equivalent_potential_temperature']
01:20:23 WARNING: Cannot get cube for: http://129.252.139.124/thredds/dodsC/fldep.binneydock..nc
Cube does not contain ['sea_water_temperature', 'sea_surface_temperature', 'sea_water_potential_temperature', 'equivalent_potential_temperature', 'sea_water_conservative_temperature', 'pseudo_equivalent_potential_temperature']
01:20:28 WARNING: Cannot get cube for: http://129.252.139.124/thredds/dodsC/fldep.verobeach..nc
Cube does not contain ['sea_water_temperature', 'sea_surface_temperature', 'sea_water_potential_temperature', 'equivalent_potential_temperature', 'sea_water_conservative_temperature', 'pseudo_equivalent_potential_temperature']
01:20:32 WARNING: Cannot get cube for: http://129.252.139.124/thredds/dodsC/lbhmc.2ndave.pier.nc
Cube does not contain ['sea_water_temperature', 'sea_surface_temperature', 'sea_water_potential_temperature', 'equivalent_potential_temperature', 'sea_water_conservative_temperature', 'pseudo_equivalent_potential_temperature']
01:20:36 WARNING: /home/filipe/miniconda/envs/SECOORA/lib/python2.7/site-packages/iris/fileformats/_pyke_rules/compiled_krb/fc_rules_cf_fc.py:1196: UserWarning: Ignoring netCDF variable 'turbidity_2' invalid units 'ntu'
  warnings.warn(msg.format(msg_name, msg_units))

01:20:36 WARNING: /home/filipe/miniconda/envs/SECOORA/lib/python2.7/site-packages/iris/fileformats/_pyke_rules/compiled_krb/fc_rules_cf_fc.py:1196: UserWarning: Ignoring netCDF variable 'dissolved_oxygen_2' invalid units 'mg_L-1'
  warnings.warn(msg.format(msg_name, msg_units))

01:21:23 WARNING: Cannot get cube for: http://129.252.139.124/thredds/dodsC/enp.ppta1.met.nc
Cube does not contain ['sea_water_temperature', 'sea_surface_temperature', 'sea_water_potential_temperature', 'equivalent_potential_temperature', 'sea_water_conservative_temperature', 'pseudo_equivalent_potential_temperature']
01:22:04 WARNING: /home/filipe/miniconda/envs/SECOORA/lib/python2.7/site-packages/iris/fileformats/_pyke_rules/compiled_krb/fc_rules_cf_fc.py:1196: UserWarning: Ignoring netCDF variable 'phosphate' invalid units 'uM'
  warnings.warn(msg.format(msg_name, msg_units))

01:22:04 WARNING: /home/filipe/miniconda/envs/SECOORA/lib/python2.7/site-packages/iris/fileformats/_pyke_rules/compiled_krb/fc_rules_cf_fc.py:1196: UserWarning: Ignoring netCDF variable 'photosynthetically_available_radiation' invalid units 'micromoles_per_m^2'
  warnings.warn(msg.format(msg_name, msg_units))

01:22:09 INFO: ********************* Collector offerings **********************
01:22:09 INFO: NOAA.NOS.CO-OPS SOS: 1027 offerings
01:22:14 INFO: SOS URL request: http://opendap.co-ops.nos.noaa.gov/ioos-dif-sos/SOS?eventTime=2014-06-30T12%3A00%3A00Z&service=SOS&offering=urn%3Aioos%3Anetwork%3ANOAA.NOS.CO-OPS%3AMetActive&request=GetObservation&version=1.0.0&responseFormat=text%2Fcsv&featureOfInterest=BBOX%3A-87.4%2C24.25%2C-74.7%2C36.7&observedProperty=sea_water_temperature
01:24:34 INFO: ************************* Observations *************************
01:24:34 INFO: **** Downloading to file 2014-07-07/2014-07-07-OBS_DATA.nc *****
01:26:02 INFO: ********************* SECOORA Observations *********************
01:26:02 INFO:  Downloading to file 2014-07-07/2014-07-07-SECOORA_OBS_DATA.nc *
01:26:02 INFO: **************************** Models ****************************
01:26:02 INFO: 
[Reading url 1/43]: http://crow.marine.usf.edu:8080/thredds/dodsC/FVCOM-Nowcast-Agg.nc
01:31:03 WARNING: Cannot get cube for: http://crow.marine.usf.edu:8080/thredds/dodsC/FVCOM-Nowcast-Agg.nc
Timed out!
01:31:03 INFO: 
[Reading url 2/43]: http://crow.marine.usf.edu:8080/thredds/dodsC/WFS_ROMS_NF_model/USF_Ocean_Circulation_Group_West_Florida_Shelf_Daily_ROMS_Nowcast_Forecast_Model_Data_best.ncd
01:31:09 INFO: 
[Reading url 3/43]: http://geoport.whoi.edu/thredds/dodsC/coawst_4/use/fmrc/coawst_4_use_best.ncd
01:31:33 INFO: 
[Reading url 4/43]: http://omgsrv1.meas.ncsu.edu:8080/thredds/dodsC/fmrc/sabgom/SABGOM_Forecast_Model_Run_Collection_best.ncd
01:31:44 WARNING: Cannot get cube for: http://omgsrv1.meas.ncsu.edu:8080/thredds/dodsC/fmrc/sabgom/SABGOM_Forecast_Model_Run_Collection_best.ncd
istart must be different from istop! Got istart 0 and  istop 0
01:31:44 INFO: 
[Reading url 5/43]: http://oos.soest.hawaii.edu/thredds/dodsC/hioos/satellite/dhw
01:31:49 INFO: 
[Reading url 6/43]: http://oos.soest.hawaii.edu/thredds/dodsC/pacioos/hycom/global
01:31:53 INFO: 
[Reading url 7/43]: http://tds.marine.rutgers.edu/thredds/dodsC/roms/espresso/2013_da/his_Best/ESPRESSO_Real-Time_v2_History_Best_Available_best.ncd
01:32:03 INFO: 
[Reading url 8/43]: http://thredds.axiomalaska.com/thredds/dodsC/G1_SST_GLOBAL.nc
01:33:36 INFO: 
[Reading url 9/43]: http://thredds.cdip.ucsd.edu/thredds/dodsC/cdip/archive/029p1/029p1_d19.nc
01:33:38 WARNING: Cannot get cube for: http://thredds.cdip.ucsd.edu/thredds/dodsC/cdip/archive/029p1/029p1_d19.nc
No cube using [-87.4, 24.25, -74.7, 36.7]
01:33:38 INFO: 
[Reading url 10/43]: http://thredds.cdip.ucsd.edu/thredds/dodsC/cdip/archive/029p1/029p1_historic.nc
01:33:48 WARNING: Cannot get cube for: http://thredds.cdip.ucsd.edu/thredds/dodsC/cdip/archive/029p1/029p1_historic.nc
No cube using [-87.4, 24.25, -74.7, 36.7]
01:33:48 INFO: 
[Reading url 11/43]: http://thredds.cdip.ucsd.edu/thredds/dodsC/cdip/archive/036p1/036p1_d40.nc
01:33:50 WARNING: Cannot get cube for: http://thredds.cdip.ucsd.edu/thredds/dodsC/cdip/archive/036p1/036p1_d40.nc
No cube using [-87.4, 24.25, -74.7, 36.7]
01:33:50 INFO: 
[Reading url 12/43]: http://thredds.cdip.ucsd.edu/thredds/dodsC/cdip/archive/043p1/043p1_d16.nc
01:33:52 WARNING: Cannot get cube for: http://thredds.cdip.ucsd.edu/thredds/dodsC/cdip/archive/043p1/043p1_d16.nc
No cube using [-87.4, 24.25, -74.7, 36.7]
01:33:52 INFO: 
[Reading url 13/43]: http://thredds.cdip.ucsd.edu/thredds/dodsC/cdip/archive/043p1/043p1_d17.nc
01:33:54 WARNING: Cannot get cube for: http://thredds.cdip.ucsd.edu/thredds/dodsC/cdip/archive/043p1/043p1_d17.nc
No cube using [-87.4, 24.25, -74.7, 36.7]
01:33:54 INFO: 
[Reading url 14/43]: http://thredds.cdip.ucsd.edu/thredds/dodsC/cdip/archive/045p1/045p1_historic.nc
01:34:17 WARNING: Cannot get cube for: http://thredds.cdip.ucsd.edu/thredds/dodsC/cdip/archive/045p1/045p1_historic.nc
No cube using [-87.4, 24.25, -74.7, 36.7]
01:34:17 INFO: 
[Reading url 15/43]: http://thredds.cdip.ucsd.edu/thredds/dodsC/cdip/archive/067p1/067p1_d22.nc
01:34:19 WARNING: Cannot get cube for: http://thredds.cdip.ucsd.edu/thredds/dodsC/cdip/archive/067p1/067p1_d22.nc
No cube using [-87.4, 24.25, -74.7, 36.7]
01:34:19 INFO: 
[Reading url 16/43]: http://thredds.cdip.ucsd.edu/thredds/dodsC/cdip/archive/067p1/067p1_historic.nc
01:34:28 WARNING: Cannot get cube for: http://thredds.cdip.ucsd.edu/thredds/dodsC/cdip/archive/067p1/067p1_historic.nc
No cube using [-87.4, 24.25, -74.7, 36.7]
01:34:28 INFO: 
[Reading url 17/43]: http://thredds.cdip.ucsd.edu/thredds/dodsC/cdip/archive/076p1/076p1_d27.nc
01:34:31 WARNING: Cannot get cube for: http://thredds.cdip.ucsd.edu/thredds/dodsC/cdip/archive/076p1/076p1_d27.nc
No cube using [-87.4, 24.25, -74.7, 36.7]
01:34:31 INFO: 
[Reading url 18/43]: http://thredds.cdip.ucsd.edu/thredds/dodsC/cdip/archive/093p1/093p1_d40.nc
01:34:33 WARNING: Cannot get cube for: http://thredds.cdip.ucsd.edu/thredds/dodsC/cdip/archive/093p1/093p1_d40.nc
No cube using [-87.4, 24.25, -74.7, 36.7]
01:34:33 INFO: 
[Reading url 19/43]: http://thredds.cdip.ucsd.edu/thredds/dodsC/cdip/archive/098p1/098p1_historic.nc
01:34:42 WARNING: Cannot get cube for: http://thredds.cdip.ucsd.edu/thredds/dodsC/cdip/archive/098p1/098p1_historic.nc
No cube using [-87.4, 24.25, -74.7, 36.7]
01:34:42 INFO: 
[Reading url 20/43]: http://thredds.cdip.ucsd.edu/thredds/dodsC/cdip/archive/100p1/100p1_d13.nc
01:34:44 WARNING: Cannot get cube for: http://thredds.cdip.ucsd.edu/thredds/dodsC/cdip/archive/100p1/100p1_d13.nc
No cube using [-87.4, 24.25, -74.7, 36.7]
01:34:44 INFO: 
[Reading url 21/43]: http://thredds.cdip.ucsd.edu/thredds/dodsC/cdip/archive/100p1/100p1_historic.nc
01:34:54 WARNING: Cannot get cube for: http://thredds.cdip.ucsd.edu/thredds/dodsC/cdip/archive/100p1/100p1_historic.nc
No cube using [-87.4, 24.25, -74.7, 36.7]
01:34:54 INFO: 
[Reading url 22/43]: http://thredds.cdip.ucsd.edu/thredds/dodsC/cdip/archive/132p1/132p1_d11.nc
01:34:56 WARNING: url http://thredds.cdip.ucsd.edu/thredds/dodsC/cdip/archive/132p1/132p1_d11.nc is probably a timeSeries!
01:34:56 INFO: 
[Reading url 23/43]: http://thredds.cdip.ucsd.edu/thredds/dodsC/cdip/archive/132p1/132p1_historic.nc
01:35:03 WARNING: url http://thredds.cdip.ucsd.edu/thredds/dodsC/cdip/archive/132p1/132p1_historic.nc is probably a timeSeries!
01:35:03 INFO: 
[Reading url 24/43]: http://thredds.cdip.ucsd.edu/thredds/dodsC/cdip/archive/142p1/142p1_d14.nc
01:35:09 WARNING: Cannot get cube for: http://thredds.cdip.ucsd.edu/thredds/dodsC/cdip/archive/142p1/142p1_d14.nc
No cube using [-87.4, 24.25, -74.7, 36.7]
01:35:09 INFO: 
[Reading url 25/43]: http://thredds.cdip.ucsd.edu/thredds/dodsC/cdip/archive/142p1/142p1_historic.nc
01:35:15 WARNING: Cannot get cube for: http://thredds.cdip.ucsd.edu/thredds/dodsC/cdip/archive/142p1/142p1_historic.nc
No cube using [-87.4, 24.25, -74.7, 36.7]
01:35:15 INFO: 
[Reading url 26/43]: http://thredds.cdip.ucsd.edu/thredds/dodsC/cdip/archive/150p1/150p1_d07.nc
01:35:18 WARNING: url http://thredds.cdip.ucsd.edu/thredds/dodsC/cdip/archive/150p1/150p1_d07.nc is probably a timeSeries!
01:35:18 INFO: 
[Reading url 27/43]: http://thredds.cdip.ucsd.edu/thredds/dodsC/cdip/archive/150p1/150p1_historic.nc
01:35:24 WARNING: url http://thredds.cdip.ucsd.edu/thredds/dodsC/cdip/archive/150p1/150p1_historic.nc is probably a timeSeries!
01:35:24 INFO: 
[Reading url 28/43]: http://thredds.cdip.ucsd.edu/thredds/dodsC/cdip/archive/156p1/156p1_d07.nc
01:35:26 WARNING: Cannot get cube for: http://thredds.cdip.ucsd.edu/thredds/dodsC/cdip/archive/156p1/156p1_d07.nc
No cube using [-87.4, 24.25, -74.7, 36.7]
01:35:26 INFO: 
[Reading url 29/43]: http://thredds.cdip.ucsd.edu/thredds/dodsC/cdip/archive/162p1/162p1_d04.nc
01:35:34 WARNING: Cannot get cube for: http://thredds.cdip.ucsd.edu/thredds/dodsC/cdip/archive/162p1/162p1_d04.nc
No cube using [-87.4, 24.25, -74.7, 36.7]
01:35:34 INFO: 
[Reading url 30/43]: http://thredds.cdip.ucsd.edu/thredds/dodsC/cdip/archive/166p1/166p1_d02.nc
01:35:38 WARNING: Cannot get cube for: http://thredds.cdip.ucsd.edu/thredds/dodsC/cdip/archive/166p1/166p1_d02.nc
No cube using [-87.4, 24.25, -74.7, 36.7]
01:35:38 INFO: 
[Reading url 31/43]: http://thredds.cdip.ucsd.edu/thredds/dodsC/cdip/archive/168p1/168p1_d05.nc
01:35:41 WARNING: Cannot get cube for: http://thredds.cdip.ucsd.edu/thredds/dodsC/cdip/archive/168p1/168p1_d05.nc
No cube using [-87.4, 24.25, -74.7, 36.7]
01:35:41 INFO: 
[Reading url 32/43]: http://thredds.cdip.ucsd.edu/thredds/dodsC/cdip/archive/179p1/179p1_d04.nc
01:35:44 WARNING: Cannot get cube for: http://thredds.cdip.ucsd.edu/thredds/dodsC/cdip/archive/179p1/179p1_d04.nc
No cube using [-87.4, 24.25, -74.7, 36.7]
01:35:44 INFO: 
[Reading url 33/43]: http://thredds.cdip.ucsd.edu/thredds/dodsC/cdip/archive/185p1/185p1_d02.nc
01:36:01 WARNING: Cannot get cube for: http://thredds.cdip.ucsd.edu/thredds/dodsC/cdip/archive/185p1/185p1_d02.nc
No cube using [-87.4, 24.25, -74.7, 36.7]
01:36:01 INFO: 
[Reading url 34/43]: http://thredds.cdip.ucsd.edu/thredds/dodsC/cdip/archive/185p1/185p1_d03.nc
01:36:09 WARNING: Cannot get cube for: http://thredds.cdip.ucsd.edu/thredds/dodsC/cdip/archive/185p1/185p1_d03.nc
No cube using [-87.4, 24.25, -74.7, 36.7]
01:36:09 INFO: 
[Reading url 35/43]: http://thredds.cdip.ucsd.edu/thredds/dodsC/cdip/archive/190p1/190p1_d02.nc
01:36:14 WARNING: url http://thredds.cdip.ucsd.edu/thredds/dodsC/cdip/archive/190p1/190p1_d02.nc is probably a timeSeries!
01:36:14 INFO: 
[Reading url 36/43]: http://thredds.cdip.ucsd.edu/thredds/dodsC/cdip/archive/190p1/190p1_historic.nc
01:36:45 WARNING: url http://thredds.cdip.ucsd.edu/thredds/dodsC/cdip/archive/190p1/190p1_historic.nc is probably a timeSeries!
01:36:45 INFO: 
[Reading url 37/43]: http://thredds.cdip.ucsd.edu/thredds/dodsC/cdip/archive/191p1/191p1_d12.nc
01:36:58 WARNING: Cannot get cube for: http://thredds.cdip.ucsd.edu/thredds/dodsC/cdip/archive/191p1/191p1_d12.nc
No cube using [-87.4, 24.25, -74.7, 36.7]
01:36:58 INFO: 
[Reading url 38/43]: http://thredds.cdip.ucsd.edu/thredds/dodsC/cdip/archive/192p1/192p1_d02.nc
01:37:14 WARNING: url http://thredds.cdip.ucsd.edu/thredds/dodsC/cdip/archive/192p1/192p1_d02.nc is probably a timeSeries!
01:37:14 INFO: 
[Reading url 39/43]: http://thredds.cdip.ucsd.edu/thredds/dodsC/cdip/archive/192p1/192p1_historic.nc
01:37:19 WARNING: url http://thredds.cdip.ucsd.edu/thredds/dodsC/cdip/archive/192p1/192p1_historic.nc is probably a timeSeries!
01:37:19 INFO: 
[Reading url 40/43]: http://thredds.cdip.ucsd.edu/thredds/dodsC/cdip/archive/201p1/201p1_d02.nc
01:37:50 WARNING: Cannot get cube for: http://thredds.cdip.ucsd.edu/thredds/dodsC/cdip/archive/201p1/201p1_d02.nc
No cube using [-87.4, 24.25, -74.7, 36.7]
01:37:50 INFO: 
[Reading url 41/43]: http://thredds.cdip.ucsd.edu/thredds/dodsC/cdip/archive/203p1/203p1_d01.nc
01:38:04 WARNING: Cannot get cube for: http://thredds.cdip.ucsd.edu/thredds/dodsC/cdip/archive/203p1/203p1_d01.nc
No cube using [-87.4, 24.25, -74.7, 36.7]
01:38:04 INFO: 
[Reading url 42/43]: http://omgsrv1.meas.ncsu.edu:8080/thredds/dodsC/fmrc/us_east/US_East_Forecast_Model_Run_Collection_best.ncd
01:38:30 WARNING: Cannot get cube for: http://omgsrv1.meas.ncsu.edu:8080/thredds/dodsC/fmrc/us_east/US_East_Forecast_Model_Run_Collection_best.ncd
istart must be different from istop! Got istart 0 and  istop 0
01:38:30 INFO: 
[Reading url 43/43]: http://crow.marine.usf.edu:8080/thredds/dodsC/WFS_SWAN_NF_model/USF_Ocean_Circulation_Group_West_Florida_Shelf_Daily_SWAN_Nowcast_Forecast_Wave_Model_Data_best.ncd
01:38:31 WARNING: Cannot get cube for: http://crow.marine.usf.edu:8080/thredds/dodsC/WFS_SWAN_NF_model/USF_Ocean_Circulation_Group_West_Florida_Shelf_Daily_SWAN_Nowcast_Forecast_Wave_Model_Data_best.ncd
Cube does not contain ['sea_water_temperature', 'sea_surface_temperature', 'sea_water_potential_temperature', 'equivalent_potential_temperature', 'sea_water_conservative_temperature', 'pseudo_equivalent_potential_temperature']
01:38:31 INFO: ****** Downloading to file 2014-07-07/2014-07-07-HYCOM.nc ******
01:38:33 INFO: [Land   ] Duck, NC
01:38:36 INFO: [Water  ] Oregon Inlet Marina, NC
01:38:38 INFO: [Land   ] USCG Station Hatteras, NC
01:38:40 INFO: [Land   ] Beaufort, NC
01:38:42 INFO: [Land   ] Wilmington, NC
01:38:44 INFO: [Water  ] Wrightsville Beach, NC
01:38:44 INFO: [No Data] Springmaid Pier, SC
01:38:47 INFO: [Land   ] Charleston, SC
01:38:49 INFO: [Land   ] Fort Pulaski, GA
01:38:51 INFO: [Land   ] Fernandina Beach, FL
01:38:54 INFO: [Land   ] Mayport (Bar Pilots Dock), FL
01:38:56 INFO: [Land   ] Dames Point, FL
01:38:58 INFO: [Land   ] Jacksonville University, FL
01:39:01 INFO: [Land   ] I-295 Bridge, St Johns River, FL
01:39:03 INFO: [Land   ] Red Bay Point, St Johns River, FL
01:39:03 INFO: [No Data] Racy Point, St Johns River, FL
01:39:05 INFO: [Land   ] Trident Pier, FL
01:39:08 INFO: [Water  ] Lake Worth Pier, FL
01:39:10 INFO: [Land   ] Vaca Key, FL
01:39:13 INFO: [Land   ] Key West, FL
01:39:13 INFO: [No Data] Naples, FL
01:39:15 INFO: [Land   ] Fort Myers, FL
01:39:18 INFO: [Land   ] Port Manatee, FL
01:39:20 INFO: [Land   ] St Petersburg, FL
01:39:23 INFO: [Land   ] Old Port Tampa, FL
01:39:25 INFO: [Land   ] Apalachicola, FL
01:39:27 INFO: [Land   ] Panama City, FL
01:39:27 INFO: [No Data] Panama City Beach, FL
01:39:30 INFO: [Land   ] Pensacola, FL
01:39:32 INFO: [Land   ] Tolomato River station
01:39:35 INFO: [Land   ] Duck Key, FL
01:39:37 INFO: [Land   ] Broad River Lower, FL
01:39:40 INFO: [Land   ] Cherry Grove Pier, N. Myrtle Beach, SC
01:39:42 INFO: [Land   ] Gulf of Mexico station
01:39:44 INFO: [Land   ] Shell Point
01:39:46 INFO: [Land   ] Taylor River, FL
01:39:49 INFO: [Land   ] Redfish Pass station
01:39:52 INFO: [Land   ] Little Rabbit Key, FL
01:39:54 INFO: [Land   ] Peterson Key, FL
01:39:54 INFO: [No Data] Fort Myers station
01:39:54 INFO: [No Data] Highway Creek, FL
01:39:54 INFO: [No Data] CORMP ILM2, Wrightsville Beach Nearshore, NC
01:39:56 INFO: [Land   ] Clear Water Pass, FL 
01:39:59 INFO: [Land   ] Tarpon Bay station
01:40:01 INFO: [Land   ] Gunboat Island, FL
01:40:04 INFO: [Land   ] Cannon Bay, FL
01:40:06 INFO: [Land   ] Murray Key, FL
01:40:06 INFO: [No Data] Blackwater Sound, FL
01:40:09 INFO: [Land   ] Butternut Key, FL
01:40:11 INFO: [Land   ] Shell Point station
01:40:13 INFO: [Land   ] Whipray Basin, FL
01:40:17 INFO: [Land   ] Apache Pier, Myrtle Beach, SC
01:40:19 INFO: [Land   ] Garfield Bight, FL
01:40:21 INFO: [Land   ] Lane River, FL 
01:40:23 INFO: [Land   ] Little Blackwater, FL
01:40:26 INFO: [Land   ] Little Madeira, FL
01:40:28 INFO: [Land   ] St Lucie Inlet station
01:40:30 INFO: [Land   ] White Water -West, FL
01:40:33 INFO: [Land   ] fau_lobo_1
01:40:35 INFO: [Water  ] CORMP ILM3, Wrightsville Beach Offshore, NC
01:40:35 INFO: [No Data] Broad River, FL
01:40:37 INFO: [Land   ] Willy Willy, FL
01:40:41 INFO: [Land   ] Cane Patch, FL
01:40:43 INFO: [Land   ] Sebastian Inlet met station
01:40:45 INFO: [Water  ] CAROCOOPS SUN2, Sunset Nearshore, NC
01:40:48 INFO: [Land   ] Bing&#39;s Landing station
01:40:48 INFO: [No Data] Bob Allen, FL
01:40:50 INFO: [Land   ] Trout Cove, FL
01:40:52 INFO: [Land   ] Johnson Key, FL
01:40:53 INFO: Finished processing [HYCOM]: http://crow.marine.usf.edu:8080/thredds/dodsC/WFS_SWAN_NF_model/USF_Ocean_Circulation_Group_West_Florida_Shelf_Daily_SWAN_Nowcast_Forecast_Wave_Model_Data_best.ncd

01:40:53 INFO: **** Downloading to file 2014-07-07/2014-07-07-USF_ROMS.nc *****
01:40:53 INFO: [No Data] Duck, NC
01:40:53 INFO: [No Data] Oregon Inlet Marina, NC
01:40:53 INFO: [No Data] USCG Station Hatteras, NC
01:40:53 INFO: [No Data] Beaufort, NC
01:40:53 INFO: [No Data] Wilmington, NC
01:40:53 INFO: [No Data] Wrightsville Beach, NC
01:40:53 INFO: [No Data] Springmaid Pier, SC
01:40:53 INFO: [No Data] Charleston, SC
01:40:53 INFO: [No Data] Fort Pulaski, GA
01:40:53 INFO: [No Data] Fernandina Beach, FL
01:40:53 INFO: [No Data] Mayport (Bar Pilots Dock), FL
01:40:53 INFO: [No Data] Dames Point, FL
01:40:53 INFO: [No Data] Jacksonville University, FL
01:40:53 INFO: [No Data] I-295 Bridge, St Johns River, FL
01:40:53 INFO: [No Data] Red Bay Point, St Johns River, FL
01:40:53 INFO: [No Data] Racy Point, St Johns River, FL
01:40:53 INFO: [No Data] Trident Pier, FL
01:40:53 INFO: [No Data] Lake Worth Pier, FL
01:40:53 INFO: [No Data] Vaca Key, FL
01:40:53 INFO: [No Data] Key West, FL
01:40:54 INFO: [Water  ] Naples, FL
01:40:55 INFO: [Water  ] Fort Myers, FL
01:40:58 INFO: [Water  ] Port Manatee, FL
01:40:58 INFO: [No Data] St Petersburg, FL
01:41:00 INFO: [Water  ] Old Port Tampa, FL
01:41:02 INFO: [Water  ] Apalachicola, FL
01:41:05 INFO: [Water  ] Panama City, FL
01:41:10 INFO: [Water  ] Panama City Beach, FL
01:41:10 INFO: [No Data] Pensacola, FL
01:41:10 INFO: [No Data] Tolomato River station
01:41:10 INFO: [No Data] Duck Key, FL
01:41:12 INFO: [Water  ] Broad River Lower, FL
01:41:12 INFO: [No Data] Cherry Grove Pier, N. Myrtle Beach, SC
01:41:13 INFO: [Water  ] Gulf of Mexico station
01:41:18 INFO: [Water  ] Shell Point
01:41:18 INFO: [No Data] Taylor River, FL
01:41:20 INFO: [Water  ] Redfish Pass station
01:41:20 INFO: [No Data] Little Rabbit Key, FL
01:41:21 INFO: [Water  ] Peterson Key, FL
01:41:21 INFO: [No Data] Fort Myers station
01:41:23 INFO: [Water  ] Highway Creek, FL
01:41:23 INFO: [No Data] CORMP ILM2, Wrightsville Beach Nearshore, NC
01:41:24 INFO: [Water  ] Clear Water Pass, FL 
01:41:25 INFO: [Water  ] Tarpon Bay station
01:41:25 INFO: [No Data] Gunboat Island, FL
01:41:28 INFO: [Water  ] Cannon Bay, FL
01:41:30 INFO: [Water  ] Murray Key, FL
01:41:33 INFO: [Water  ] Blackwater Sound, FL
01:41:34 INFO: [Water  ] Butternut Key, FL
01:41:36 INFO: [Water  ] Shell Point station
01:41:36 INFO: [No Data] Whipray Basin, FL
01:41:36 INFO: [No Data] Apache Pier, Myrtle Beach, SC
01:41:36 INFO: [No Data] Garfield Bight, FL
01:41:37 INFO: [Water  ] Lane River, FL 
01:41:38 INFO: [Water  ] Little Blackwater, FL
01:41:38 INFO: [No Data] Little Madeira, FL
01:41:38 INFO: [No Data] St Lucie Inlet station
01:41:38 INFO: [No Data] White Water -West, FL
01:41:38 INFO: [No Data] fau_lobo_1
01:41:38 INFO: [No Data] CORMP ILM3, Wrightsville Beach Offshore, NC
01:41:40 INFO: [Water  ] Broad River, FL
01:41:42 INFO: [Water  ] Willy Willy, FL
01:41:44 INFO: [Water  ] Cane Patch, FL
01:41:44 INFO: [No Data] Sebastian Inlet met station
01:41:44 INFO: [No Data] CAROCOOPS SUN2, Sunset Nearshore, NC
01:41:44 INFO: [No Data] Bing&#39;s Landing station
01:41:46 INFO: [Water  ] Bob Allen, FL
01:41:46 INFO: [No Data] Trout Cove, FL
01:41:48 INFO: [Water  ] Johnson Key, FL
01:43:34 INFO: Finished processing [USF_ROMS]: http://crow.marine.usf.edu:8080/thredds/dodsC/WFS_SWAN_NF_model/USF_Ocean_Circulation_Group_West_Florida_Shelf_Daily_SWAN_Nowcast_Forecast_Wave_Model_Data_best.ncd

01:43:34 INFO: **** Downloading to file 2014-07-07/2014-07-07-COAWST_4.nc *****
01:43:43 INFO: [Land   ] Duck, NC
01:43:53 INFO: [Water  ] Oregon Inlet Marina, NC
01:43:59 INFO: [Water  ] USCG Station Hatteras, NC
01:44:17 INFO: [Land   ] Beaufort, NC
01:44:26 INFO: [Land   ] Wilmington, NC
01:44:36 INFO: [Water  ] Wrightsville Beach, NC
01:44:51 INFO: [Water  ] Springmaid Pier, SC
01:44:58 INFO: [Land   ] Charleston, SC
01:45:07 INFO: [Land   ] Fort Pulaski, GA
01:45:17 INFO: [Land   ] Fernandina Beach, FL
01:45:27 INFO: [Land   ] Mayport (Bar Pilots Dock), FL
01:45:36 INFO: [Land   ] Dames Point, FL
01:45:47 INFO: [Land   ] Jacksonville University, FL
01:45:57 INFO: [Land   ] I-295 Bridge, St Johns River, FL
01:46:07 INFO: [Land   ] Red Bay Point, St Johns River, FL
01:46:18 INFO: [Land   ] Racy Point, St Johns River, FL
01:46:29 INFO: [Land   ] Trident Pier, FL
01:46:50 INFO: [Water  ] Lake Worth Pier, FL
01:47:02 INFO: [Land   ] Vaca Key, FL
01:47:24 INFO: [Water  ] Key West, FL
01:47:35 INFO: [Land   ] Naples, FL
01:47:45 INFO: [Land   ] Fort Myers, FL
01:47:55 INFO: [Land   ] Port Manatee, FL
01:48:06 INFO: [Land   ] St Petersburg, FL
01:48:23 INFO: [Water  ] Old Port Tampa, FL
01:48:30 INFO: [Water  ] Apalachicola, FL
01:48:38 INFO: [Water  ] Panama City, FL
01:48:55 INFO: [Land   ] Panama City Beach, FL
01:49:03 INFO: [Water  ] Pensacola, FL
01:49:11 INFO: [Land   ] Tolomato River station
01:49:17 INFO: [Water  ] Duck Key, FL
01:49:25 INFO: [Land   ] Broad River Lower, FL
01:49:32 INFO: [Land   ] Cherry Grove Pier, N. Myrtle Beach, SC
01:49:50 INFO: [Water  ] Gulf of Mexico station
01:49:57 INFO: [Land   ] Shell Point
01:50:08 INFO: [Land   ] Taylor River, FL
01:50:28 INFO: [Water  ] Redfish Pass station
01:50:38 INFO: [Water  ] Little Rabbit Key, FL
01:50:48 INFO: [Water  ] Peterson Key, FL
01:50:56 INFO: [Land   ] Fort Myers station
01:51:04 INFO: [Land   ] Highway Creek, FL
01:51:21 INFO: [Water  ] CORMP ILM2, Wrightsville Beach Nearshore, NC
01:51:27 INFO: [Water  ] Clear Water Pass, FL 
01:51:38 INFO: [Water  ] Tarpon Bay station
01:51:45 INFO: [Land   ] Gunboat Island, FL
01:51:53 INFO: [Land   ] Cannon Bay, FL
01:52:01 INFO: [Water  ] Murray Key, FL
01:52:10 INFO: [Land   ] Blackwater Sound, FL
01:52:25 INFO: [Water  ] Butternut Key, FL
01:52:41 INFO: [Land   ] Shell Point station
01:52:57 INFO: [Water  ] Whipray Basin, FL
01:53:04 INFO: [Land   ] Apache Pier, Myrtle Beach, SC
01:53:12 INFO: [Water  ] Garfield Bight, FL
01:53:20 INFO: [Land   ] Lane River, FL 
01:53:27 INFO: [Land   ] Little Blackwater, FL
01:53:36 INFO: [Water  ] Little Madeira, FL
01:53:54 INFO: [Water  ] St Lucie Inlet station
01:54:05 INFO: [Water  ] White Water -West, FL
01:54:14 INFO: [Land   ] fau_lobo_1
01:54:23 INFO: [Water  ] CORMP ILM3, Wrightsville Beach Offshore, NC
01:54:30 INFO: [Land   ] Broad River, FL
01:54:40 INFO: [Land   ] Willy Willy, FL
01:54:50 INFO: [Land   ] Cane Patch, FL
01:54:58 INFO: [Water  ] Sebastian Inlet met station
01:55:08 INFO: [Water  ] CAROCOOPS SUN2, Sunset Nearshore, NC
01:55:18 INFO: [Land   ] Bing&#39;s Landing station
01:55:27 INFO: [Water  ] Bob Allen, FL
01:55:35 INFO: [Land   ] Trout Cove, FL
01:55:42 INFO: [Water  ] Johnson Key, FL
02:05:29 INFO: Finished processing [COAWST_4]: http://crow.marine.usf.edu:8080/thredds/dodsC/WFS_SWAN_NF_model/USF_Ocean_Circulation_Group_West_Florida_Shelf_Daily_SWAN_Nowcast_Forecast_Wave_Model_Data_best.ncd

02:05:29 INFO: **** Downloading to file 2014-07-07/2014-07-07-ESPRESSO.nc *****
02:05:35 INFO: [Land   ] Duck, NC
02:05:41 INFO: [Water  ] Oregon Inlet Marina, NC
02:05:46 INFO: [Land   ] USCG Station Hatteras, NC
02:05:51 INFO: [Water  ] Beaufort, NC
02:05:51 INFO: [No Data] Wilmington, NC
02:05:51 INFO: [No Data] Wrightsville Beach, NC
02:05:51 INFO: [No Data] Springmaid Pier, SC
02:05:51 INFO: [No Data] Charleston, SC
02:05:51 INFO: [No Data] Fort Pulaski, GA
02:05:51 INFO: [No Data] Fernandina Beach, FL
02:05:51 INFO: [No Data] Mayport (Bar Pilots Dock), FL
02:05:51 INFO: [No Data] Dames Point, FL
02:05:51 INFO: [No Data] Jacksonville University, FL
02:05:51 INFO: [No Data] I-295 Bridge, St Johns River, FL
02:05:51 INFO: [No Data] Red Bay Point, St Johns River, FL
02:05:51 INFO: [No Data] Racy Point, St Johns River, FL
02:05:51 INFO: [No Data] Trident Pier, FL
02:05:51 INFO: [No Data] Lake Worth Pier, FL
02:05:51 INFO: [No Data] Vaca Key, FL
02:05:51 INFO: [No Data] Key West, FL
02:05:51 INFO: [No Data] Naples, FL
02:05:51 INFO: [No Data] Fort Myers, FL
02:05:51 INFO: [No Data] Port Manatee, FL
02:05:51 INFO: [No Data] St Petersburg, FL
02:05:51 INFO: [No Data] Old Port Tampa, FL
02:05:51 INFO: [No Data] Apalachicola, FL
02:05:51 INFO: [No Data] Panama City, FL
02:05:51 INFO: [No Data] Panama City Beach, FL
02:05:51 INFO: [No Data] Pensacola, FL
02:05:51 INFO: [No Data] Tolomato River station
02:05:51 INFO: [No Data] Duck Key, FL
02:05:51 INFO: [No Data] Broad River Lower, FL
02:05:51 INFO: [No Data] Cherry Grove Pier, N. Myrtle Beach, SC
02:05:51 INFO: [No Data] Gulf of Mexico station
02:05:51 INFO: [No Data] Shell Point
02:05:51 INFO: [No Data] Taylor River, FL
02:05:51 INFO: [No Data] Redfish Pass station
02:05:51 INFO: [No Data] Little Rabbit Key, FL
02:05:51 INFO: [No Data] Peterson Key, FL
02:05:51 INFO: [No Data] Fort Myers station
02:05:51 INFO: [No Data] Highway Creek, FL
02:05:51 INFO: [No Data] CORMP ILM2, Wrightsville Beach Nearshore, NC
02:05:51 INFO: [No Data] Clear Water Pass, FL 
02:05:51 INFO: [No Data] Tarpon Bay station
02:05:51 INFO: [No Data] Gunboat Island, FL
02:05:51 INFO: [No Data] Cannon Bay, FL
02:05:51 INFO: [No Data] Murray Key, FL
02:05:51 INFO: [No Data] Blackwater Sound, FL
02:05:51 INFO: [No Data] Butternut Key, FL
02:05:51 INFO: [No Data] Shell Point station
02:05:51 INFO: [No Data] Whipray Basin, FL
02:05:51 INFO: [No Data] Apache Pier, Myrtle Beach, SC
02:05:51 INFO: [No Data] Garfield Bight, FL
02:05:51 INFO: [No Data] Lane River, FL 
02:05:51 INFO: [No Data] Little Blackwater, FL
02:05:51 INFO: [No Data] Little Madeira, FL
02:05:51 INFO: [No Data] St Lucie Inlet station
02:05:51 INFO: [No Data] White Water -West, FL
02:05:51 INFO: [No Data] fau_lobo_1
02:05:51 INFO: [No Data] CORMP ILM3, Wrightsville Beach Offshore, NC
02:05:51 INFO: [No Data] Broad River, FL
02:05:51 INFO: [No Data] Willy Willy, FL
02:05:51 INFO: [No Data] Cane Patch, FL
02:05:51 INFO: [No Data] Sebastian Inlet met station
02:05:51 INFO: [No Data] CAROCOOPS SUN2, Sunset Nearshore, NC
02:05:51 INFO: [No Data] Bing&#39;s Landing station
02:05:51 INFO: [No Data] Bob Allen, FL
02:05:51 INFO: [No Data] Trout Cove, FL
02:05:51 INFO: [No Data] Johnson Key, FL
02:06:04 INFO: Finished processing [ESPRESSO]: http://crow.marine.usf.edu:8080/thredds/dodsC/WFS_SWAN_NF_model/USF_Ocean_Circulation_Group_West_Florida_Shelf_Daily_SWAN_Nowcast_Forecast_Wave_Model_Data_best.ncd

02:06:04 INFO:  Downloading to file 2014-07-07/2014-07-07-NECOFS_GOM3_WAVE.nc *
02:07:10 INFO: [Water  ] Duck, NC
02:07:28 INFO: [Water  ] Oregon Inlet Marina, NC
02:07:47 INFO: [Water  ] USCG Station Hatteras, NC
02:08:04 INFO: [Land   ] Beaufort, NC
02:08:06 INFO: [Land   ] Wilmington, NC
02:08:15 INFO: [Land   ] Wrightsville Beach, NC
02:08:19 INFO: [Land   ] Springmaid Pier, SC
02:08:21 INFO: [Land   ] Charleston, SC
02:08:39 INFO: [Water  ] Fort Pulaski, GA
02:08:41 INFO: [Land   ] Fernandina Beach, FL
02:08:43 INFO: [Land   ] Mayport (Bar Pilots Dock), FL
02:08:45 INFO: [Land   ] Dames Point, FL
02:08:47 INFO: [Land   ] Jacksonville University, FL
02:08:49 INFO: [Land   ] I-295 Bridge, St Johns River, FL
02:08:51 INFO: [Land   ] Red Bay Point, St Johns River, FL
02:08:53 INFO: [Land   ] Racy Point, St Johns River, FL
02:08:59 INFO: [Land   ] Trident Pier, FL
02:09:01 INFO: [Land   ] Lake Worth Pier, FL
02:09:19 INFO: [Water  ] Vaca Key, FL
02:09:38 INFO: [Water  ] Key West, FL
02:09:40 INFO: [Land   ] Naples, FL
02:09:46 INFO: [Land   ] Fort Myers, FL
02:09:49 INFO: [Land   ] Port Manatee, FL
02:09:55 INFO: [Land   ] St Petersburg, FL
02:10:02 INFO: [Land   ] Old Port Tampa, FL
02:10:13 INFO: [Land   ] Apalachicola, FL
02:10:14 INFO: [Land   ] Panama City, FL
02:10:23 INFO: [Land   ] Panama City Beach, FL
02:10:33 INFO: [Land   ] Pensacola, FL
02:10:35 INFO: [Land   ] Tolomato River station
02:10:54 INFO: [Water  ] Duck Key, FL
02:10:56 INFO: [Land   ] Broad River Lower, FL
02:11:14 INFO: [Water  ] Cherry Grove Pier, N. Myrtle Beach, SC
02:11:33 INFO: [Water  ] Gulf of Mexico station
02:11:51 INFO: [Water  ] Shell Point
02:11:52 INFO: [Land   ] Taylor River, FL
02:12:17 INFO: [Water  ] Redfish Pass station
02:12:36 INFO: [Water  ] Little Rabbit Key, FL
02:12:55 INFO: [Water  ] Peterson Key, FL
02:12:57 INFO: [Land   ] Fort Myers station
02:12:59 INFO: [Land   ] Highway Creek, FL
02:13:17 INFO: [Water  ] CORMP ILM2, Wrightsville Beach Nearshore, NC
02:13:24 INFO: [Land   ] Clear Water Pass, FL 
02:13:26 INFO: [Land   ] Tarpon Bay station
02:13:28 INFO: [Land   ] Gunboat Island, FL
02:13:30 INFO: [Land   ] Cannon Bay, FL
02:13:55 INFO: [Water  ] Murray Key, FL
02:14:16 INFO: [Water  ] Blackwater Sound, FL
02:14:41 INFO: [Water  ] Butternut Key, FL
02:14:49 INFO: [Land   ] Shell Point station
02:15:06 INFO: [Water  ] Whipray Basin, FL
02:15:17 INFO: [Land   ] Apache Pier, Myrtle Beach, SC
02:15:19 INFO: [Land   ] Garfield Bight, FL
02:15:21 INFO: [Land   ] Lane River, FL 
02:15:38 INFO: [Water  ] Little Blackwater, FL
02:15:45 INFO: [Land   ] Little Madeira, FL
02:15:47 INFO: [Land   ] St Lucie Inlet station
02:15:49 INFO: [Land   ] White Water -West, FL
02:15:50 INFO: [Land   ] fau_lobo_1
02:16:13 INFO: [Water  ] CORMP ILM3, Wrightsville Beach Offshore, NC
02:16:15 INFO: [Land   ] Broad River, FL
02:16:16 INFO: [Land   ] Willy Willy, FL
02:16:18 INFO: [Land   ] Cane Patch, FL
02:16:25 INFO: [Land   ] Sebastian Inlet met station
02:16:42 INFO: [Water  ] CAROCOOPS SUN2, Sunset Nearshore, NC
02:16:44 INFO: [Land   ] Bing&#39;s Landing station
02:17:01 INFO: [Water  ] Bob Allen, FL
02:17:03 INFO: [Land   ] Trout Cove, FL
02:17:20 INFO: [Water  ] Johnson Key, FL
02:17:20 INFO: Finished processing [NECOFS_GOM3_WAVE]: http://crow.marine.usf.edu:8080/thredds/dodsC/WFS_SWAN_NF_model/USF_Ocean_Circulation_Group_West_Florida_Shelf_Daily_SWAN_Nowcast_Forecast_Wave_Model_Data_best.ncd

02:17:24 WARNING: /home/filipe/miniconda/envs/SECOORA/lib/python2.7/site-packages/numpy/core/_methods.py:59: RuntimeWarning: Mean of empty slice.
  warnings.warn("Mean of empty slice.", RuntimeWarning)

02:17:49 INFO: 61.59 minutes
02:17:49 INFO: EOF
