01:00:05 INFO: *********************** Run information ************************
01:00:05 INFO: Run date: 2015-02-06 16:00:05
01:00:05 INFO: Download start: 2014-06-30 12:00:00
01:00:05 INFO: Download stop: 2014-07-07 12:00:00
01:00:05 INFO: Bounding box: -87.40, 24.25,-74.70, 36.70
01:00:05 INFO: *********************** Software version ***********************
01:00:05 INFO: Iris version: 1.7.2-DEV
01:00:05 INFO: owslib version: 0.8-dev
01:00:05 INFO: pyoos version: 0.6.2
01:00:09 INFO: ********************* Catalog information **********************
01:00:09 INFO: URL: http://www.ngdc.noaa.gov/geoportal/csw
01:00:09 INFO: CSW version: 2.0.2
01:00:09 INFO: Number of datasets available: 43
01:00:09 INFO: ***************************** CSW ******************************
01:00:09 INFO: USF FVCOM - Nowcast Aggregation
01:00:09 INFO: ROMS/TOMS 3.0 - New Floria Shelf Application
01:00:09 INFO: ROMS/TOMS 3.0 - South-Atlantic Bight and Gulf of Mexico
01:00:09 INFO: COAWST Forecast System : USGS : US East Coast and Gulf of Mexico (Experimental)
01:00:09 INFO: Directional wave and sea surface temperature measurements collected in situ by Datawell Mark 3 directional buoy located near MONTEREY CANYON OUTER, CA from 2013/07/11 17:00:00 to 2014/07/01 20:59:59.
01:00:09 INFO: Directional wave and sea surface temperature measurements collected in situ by Datawell Mark 3 directional buoy located near MONTEREY BAY WEST, CA from 2013/06/19 18:00:00 to 2014/07/01 14:59:59.
01:00:09 INFO: Directional wave and sea surface temperature measurements collected in situ by Datawell Mark 3 directional buoy located near MONTEREY BAY WEST, CA from 2014/07/01 19:00:00 to 2014/10/04 23:59:59.
01:00:09 INFO: Directional wave and sea surface temperature measurements collected in situ by Datawell Mark 3 directional buoy located near SAN FRANCISCO BAR, CA from 2013/06/19 22:00:00 to 2014/07/24 14:59:59.
01:00:09 INFO: Directional wave and sea surface temperature measurements collected in situ by Datawell Mark 3 directional buoy located near POINT REYES, CA from 2013/10/16 21:00:00 to 2014/09/05 11:59:59.
01:00:09 INFO: Directional wave and sea surface temperature measurements collected in situ by Datawell Mark 3 directional buoy located near HUMBOLDT BAY NORTH SPIT, CA from 2013/08/26 19:00:00 to 2014/07/24 03:59:59.
01:00:09 INFO: Directional wave and sea surface temperature measurements collected in situ by Datawell Mark 3 directional buoy located near DIABLO CANYON, CA from 2013/08/28 23:00:00 to 2014/10/29 16:59:59.
01:00:09 INFO: Directional wave and sea surface temperature measurements collected in situ by Datawell Mark 3 directional buoy located near CLATSOP SPIT, OR from 2013/07/18 20:00:00 to 2015/01/12 18:59:59.
01:00:09 INFO: Directional wave and sea surface temperature measurements collected in situ by Datawell Mark 3 directional buoy located near ASTORIA CANYON, OR from 2014/01/16 20:00:00 to 2014/09/29 22:59:59.
01:00:09 INFO: Directional wave and sea surface temperature measurements collected in situ by Datawell Mark 3 directional buoy located near GRAYS HARBOR, WA from 2013/10/13 19:00:00 to 2015/01/28 15:59:59.
01:00:09 INFO: Directional wave and sea surface temperature measurements collected in situ by Datawell Waverider buoys located near SAN FRANCISCO BAR, CA from 2007/07/25 to 2014/07/24.
01:00:09 INFO: Directional wave and sea surface temperature measurements collected in situ by Datawell Mark 3 directional buoy located near SANTA CRUZ BASIN, CA from 2013/07/09 15:00:00 to 2014/07/14 16:59:59.
01:00:09 INFO: Directional wave and sea surface temperature measurements collected in situ by Datawell Mark 3 directional buoy located near OCEAN STATION PAPA from 2012/10/04 21:00:00 to 2015/01/01 00:59:59.
01:00:09 INFO: Directional wave and sea surface temperature measurements collected in situ by Datawell Mark 3 directional buoy located near CAMP PENDLETON NEARSHORE, CA from 2014/04/24 22:00:00 to 2014/06/06 16:59:59.
01:00:09 INFO: Directional wave and sea surface temperature measurements collected in situ by Datawell Mark 3 directional buoy located near CAMP PENDLETON NEARSHORE, CA from 2014/06/16 21:00:00 to 2015/01/23 12:59:59.
01:00:09 INFO: Directional wave and sea surface temperature measurements collected in situ by Datawell Mark 3 directional buoy located near SAN NICOLAS ISLAND, CA from 2013/04/19 17:00:00 to 2014/06/08 21:59:59.
01:00:09 INFO: Directional wave and sea surface temperature measurements collected in situ by Datawell Mark 3 directional buoy located near TORREY PINES OUTER, CA from 2014/06/10 21:00:00 to 2014/06/12 15:59:59.
01:00:09 INFO: Directional wave and sea surface temperature measurements collected in situ by Datawell Mark 3 directional buoy located near SCRIPPS NEARSHORE, CA from 2013/07/12 20:00:00 to 2015/01/07 17:59:59.
01:00:09 INFO: Directional wave and sea surface temperature measurements collected in situ by Datawell Mark 3 directional buoy located near MISSION BAY OFFSHORE, CA from 2014/04/28 21:00:00 to 2014/06/24 09:59:59.
01:00:09 INFO: Directional wave and sea surface temperature measurements collected in situ by Datawell Waverider buoys located near OCEANSIDE OFFSHORE, CA from 1997/05/19 to 2014/10/14.
01:00:09 INFO: Directional wave and sea surface temperature measurements collected in situ by Datawell Mark 3 directional buoy located near POINT LOMA SOUTH, CA from 2013/08/12 20:00:00 to 2014/09/10 07:59:59.
01:00:09 INFO: Directional wave and sea surface temperature measurements collected in situ by Datawell Waverider buoys located near MOKAPU POINT, HI from 2000/08/09 to 2014/09/10.
01:00:09 INFO: Directional wave and sea surface temperature measurements collected in situ by Datawell Waverider buoys located near TORREY PINES OUTER, CA from 2001/01/30 to 2014/06/06.
01:00:09 INFO: ROMS ESPRESSO Real-Time Operational IS4DVAR Forecast System Version 2 (NEW) 2013-present FMRC History (Best)
01:00:09 INFO: Directional wave and sea surface temperature measurements collected in situ by Datawell Waverider buoys located near SAN NICOLAS ISLAND, CA from 1991/09/10 to 2014/06/08.
01:00:09 INFO: Directional wave and sea surface temperature measurements collected in situ by Datawell Mark 3 directional buoy located near FERNANDINA BEACH, FL from 2013/12/17 18:00:00 to 2015/01/29 16:59:59.
01:00:09 INFO: NDBC Standard Meteorological Buoy Data
01:00:09 INFO: Directional wave and sea surface temperature measurements collected in situ by Datawell Waverider buoys located near POINT REYES, CA from 1996/12/06 to 2014/09/05.
01:00:09 INFO: HYbrid Coordinate Ocean Model (HYCOM): Global
01:00:09 INFO: National Data Buoy Center SOS
01:00:09 INFO: G1SST, 1km blended SST
01:00:09 INFO: NOAA Coral Reef Watch Operational Twice-Weekly Near-Real-Time Global 50km Satellite Coral Bleaching Monitoring Products
01:00:09 INFO: Directional wave and sea surface temperature measurements collected in situ by Datawell Mark 3 directional buoy located near MASONBORO INLET, ILM2, NC from 2014/03/14 16:00:00 to 2015/01/06 13:59:59.where the water depth is approximately
01:00:09 INFO: Directional wave and sea surface temperature measurements collected in situ by Datawell Mark 3 directional buoy located near OREGON INLET, NC from 2013/07/17 17:00:00 to 2015/02/01 16:59:59.
01:00:09 INFO: Directional wave and sea surface temperature measurements collected in situ by Datawell Waverider buoys located near FERNANDINA BEACH, FL from 2006/02/09 to 2015/01/29.
01:00:09 INFO: Directional wave and sea surface temperature measurements collected in situ by Datawell Waverider buoys located near MASONBORO INLET, ILM2, NC from 2008/05/07 to 2015/01/06.
01:00:09 INFO: Directional wave and sea surface temperature measurements collected in situ by Datawell Waverider buoys located near OREGON INLET, NC from 2012/04/08 to 2015/02/01.
01:00:09 INFO: Directional wave and sea surface temperature measurements collected in situ by Datawell Waverider buoys located near NEW RIVER INLET, NC from 2012/04/14 to 2014/07/11.
01:00:09 INFO: Directional wave and sea surface temperature measurements collected in situ by Datawell Mark 3 directional buoy located near NEW RIVER INLET, NC from 2014/03/09 19:00:00 to 2014/07/11 23:59:59.
01:00:09 INFO: ***************************** DAP ******************************
01:00:09 INFO: http://crow.marine.usf.edu:8080/thredds/dodsC/FVCOM-Nowcast-Agg.nc.html
01:00:09 INFO: http://crow.marine.usf.edu:8080/thredds/dodsC/WFS_ROMS_NF_model/USF_Ocean_Circulation_Group_West_Florida_Shelf_Daily_ROMS_Nowcast_Forecast_Model_Data_best.ncd.html
01:00:09 INFO: http://geoport.whoi.edu/thredds/dodsC/coawst_4/use/fmrc/coawst_4_use_best.ncd.html
01:00:09 INFO: http://omgsrv1.meas.ncsu.edu:8080/thredds/dodsC/fmrc/sabgom/SABGOM_Forecast_Model_Run_Collection_best.ncd.html
01:00:09 INFO: http://oos.soest.hawaii.edu/thredds/dodsC/hioos/satellite/dhw.html
01:00:09 INFO: http://oos.soest.hawaii.edu/thredds/dodsC/pacioos/hycom/global.html
01:00:09 INFO: http://tds.marine.rutgers.edu/thredds/dodsC/roms/espresso/2013_da/his_Best/ESPRESSO_Real-Time_v2_History_Best_Available_best.ncd.html
01:00:09 INFO: http://thredds.axiomalaska.com/thredds/dodsC/G1_SST_GLOBAL.nc.html
01:00:09 INFO: http://thredds.cdip.ucsd.edu/thredds/dodsC/cdip/archive/029p1/029p1_d19.nc.html
01:00:09 INFO: http://thredds.cdip.ucsd.edu/thredds/dodsC/cdip/archive/029p1/029p1_historic.nc.html
01:00:09 INFO: http://thredds.cdip.ucsd.edu/thredds/dodsC/cdip/archive/036p1/036p1_d40.nc.html
01:00:09 INFO: http://thredds.cdip.ucsd.edu/thredds/dodsC/cdip/archive/043p1/043p1_d16.nc.html
01:00:09 INFO: http://thredds.cdip.ucsd.edu/thredds/dodsC/cdip/archive/043p1/043p1_d17.nc.html
01:00:09 INFO: http://thredds.cdip.ucsd.edu/thredds/dodsC/cdip/archive/045p1/045p1_historic.nc.html
01:00:09 INFO: http://thredds.cdip.ucsd.edu/thredds/dodsC/cdip/archive/067p1/067p1_d22.nc.html
01:00:09 INFO: http://thredds.cdip.ucsd.edu/thredds/dodsC/cdip/archive/067p1/067p1_historic.nc.html
01:00:09 INFO: http://thredds.cdip.ucsd.edu/thredds/dodsC/cdip/archive/076p1/076p1_d27.nc.html
01:00:09 INFO: http://thredds.cdip.ucsd.edu/thredds/dodsC/cdip/archive/093p1/093p1_d40.nc.html
01:00:09 INFO: http://thredds.cdip.ucsd.edu/thredds/dodsC/cdip/archive/098p1/098p1_historic.nc.html
01:00:09 INFO: http://thredds.cdip.ucsd.edu/thredds/dodsC/cdip/archive/100p1/100p1_d13.nc.html
01:00:09 INFO: http://thredds.cdip.ucsd.edu/thredds/dodsC/cdip/archive/100p1/100p1_historic.nc.html
01:00:09 INFO: http://thredds.cdip.ucsd.edu/thredds/dodsC/cdip/archive/132p1/132p1_d11.nc.html
01:00:09 INFO: http://thredds.cdip.ucsd.edu/thredds/dodsC/cdip/archive/132p1/132p1_historic.nc.html
01:00:09 INFO: http://thredds.cdip.ucsd.edu/thredds/dodsC/cdip/archive/142p1/142p1_d14.nc.html
01:00:09 INFO: http://thredds.cdip.ucsd.edu/thredds/dodsC/cdip/archive/142p1/142p1_historic.nc.html
01:00:09 INFO: http://thredds.cdip.ucsd.edu/thredds/dodsC/cdip/archive/150p1/150p1_d07.nc.html
01:00:09 INFO: http://thredds.cdip.ucsd.edu/thredds/dodsC/cdip/archive/150p1/150p1_historic.nc.html
01:00:09 INFO: http://thredds.cdip.ucsd.edu/thredds/dodsC/cdip/archive/156p1/156p1_d07.nc.html
01:00:09 INFO: http://thredds.cdip.ucsd.edu/thredds/dodsC/cdip/archive/162p1/162p1_d04.nc.html
01:00:09 INFO: http://thredds.cdip.ucsd.edu/thredds/dodsC/cdip/archive/166p1/166p1_d02.nc.html
01:00:09 INFO: http://thredds.cdip.ucsd.edu/thredds/dodsC/cdip/archive/168p1/168p1_d05.nc.html
01:00:09 INFO: http://thredds.cdip.ucsd.edu/thredds/dodsC/cdip/archive/179p1/179p1_d04.nc.html
01:00:09 INFO: http://thredds.cdip.ucsd.edu/thredds/dodsC/cdip/archive/185p1/185p1_d02.nc.html
01:00:09 INFO: http://thredds.cdip.ucsd.edu/thredds/dodsC/cdip/archive/185p1/185p1_d03.nc.html
01:00:09 INFO: http://thredds.cdip.ucsd.edu/thredds/dodsC/cdip/archive/190p1/190p1_d02.nc.html
01:00:09 INFO: http://thredds.cdip.ucsd.edu/thredds/dodsC/cdip/archive/190p1/190p1_historic.nc.html
01:00:09 INFO: http://thredds.cdip.ucsd.edu/thredds/dodsC/cdip/archive/191p1/191p1_d12.nc.html
01:00:09 INFO: http://thredds.cdip.ucsd.edu/thredds/dodsC/cdip/archive/192p1/192p1_d02.nc.html
01:00:09 INFO: http://thredds.cdip.ucsd.edu/thredds/dodsC/cdip/archive/192p1/192p1_historic.nc.html
01:00:09 INFO: http://thredds.cdip.ucsd.edu/thredds/dodsC/cdip/archive/201p1/201p1_d02.nc.html
01:00:09 INFO: http://thredds.cdip.ucsd.edu/thredds/dodsC/cdip/archive/203p1/203p1_d01.nc.html
01:00:09 INFO: ***************************** SOS ******************************
01:00:09 INFO: http://sdf.ndbc.noaa.gov/sos/server.php?service=SOS&request=GetCapabilities&acceptVersions=1.0.0
01:00:09 INFO: http://thredds.cdip.ucsd.edu/thredds/sos/cdip/archive/029p1/029p1_d19.nc?service=SOS&version=1.0.0&request=GetCapabilities
01:00:09 INFO: http://thredds.cdip.ucsd.edu/thredds/sos/cdip/archive/029p1/029p1_historic.nc?service=SOS&version=1.0.0&request=GetCapabilities
01:00:09 INFO: http://thredds.cdip.ucsd.edu/thredds/sos/cdip/archive/036p1/036p1_d40.nc?service=SOS&version=1.0.0&request=GetCapabilities
01:00:09 INFO: http://thredds.cdip.ucsd.edu/thredds/sos/cdip/archive/043p1/043p1_d16.nc?service=SOS&version=1.0.0&request=GetCapabilities
01:00:09 INFO: http://thredds.cdip.ucsd.edu/thredds/sos/cdip/archive/043p1/043p1_d17.nc?service=SOS&version=1.0.0&request=GetCapabilities
01:00:09 INFO: http://thredds.cdip.ucsd.edu/thredds/sos/cdip/archive/045p1/045p1_historic.nc?service=SOS&version=1.0.0&request=GetCapabilities
01:00:09 INFO: http://thredds.cdip.ucsd.edu/thredds/sos/cdip/archive/067p1/067p1_d22.nc?service=SOS&version=1.0.0&request=GetCapabilities
01:00:09 INFO: http://thredds.cdip.ucsd.edu/thredds/sos/cdip/archive/067p1/067p1_historic.nc?service=SOS&version=1.0.0&request=GetCapabilities
01:00:09 INFO: http://thredds.cdip.ucsd.edu/thredds/sos/cdip/archive/076p1/076p1_d27.nc?service=SOS&version=1.0.0&request=GetCapabilities
01:00:09 INFO: http://thredds.cdip.ucsd.edu/thredds/sos/cdip/archive/093p1/093p1_d40.nc?service=SOS&version=1.0.0&request=GetCapabilities
01:00:09 INFO: http://thredds.cdip.ucsd.edu/thredds/sos/cdip/archive/098p1/098p1_historic.nc?service=SOS&version=1.0.0&request=GetCapabilities
01:00:09 INFO: http://thredds.cdip.ucsd.edu/thredds/sos/cdip/archive/100p1/100p1_d13.nc?service=SOS&version=1.0.0&request=GetCapabilities
01:00:09 INFO: http://thredds.cdip.ucsd.edu/thredds/sos/cdip/archive/100p1/100p1_historic.nc?service=SOS&version=1.0.0&request=GetCapabilities
01:00:09 INFO: http://thredds.cdip.ucsd.edu/thredds/sos/cdip/archive/132p1/132p1_d11.nc?service=SOS&version=1.0.0&request=GetCapabilities
01:00:09 INFO: http://thredds.cdip.ucsd.edu/thredds/sos/cdip/archive/132p1/132p1_historic.nc?service=SOS&version=1.0.0&request=GetCapabilities
01:00:09 INFO: http://thredds.cdip.ucsd.edu/thredds/sos/cdip/archive/142p1/142p1_d14.nc?service=SOS&version=1.0.0&request=GetCapabilities
01:00:09 INFO: http://thredds.cdip.ucsd.edu/thredds/sos/cdip/archive/142p1/142p1_historic.nc?service=SOS&version=1.0.0&request=GetCapabilities
01:00:09 INFO: http://thredds.cdip.ucsd.edu/thredds/sos/cdip/archive/150p1/150p1_d07.nc?service=SOS&version=1.0.0&request=GetCapabilities
01:00:09 INFO: http://thredds.cdip.ucsd.edu/thredds/sos/cdip/archive/150p1/150p1_historic.nc?service=SOS&version=1.0.0&request=GetCapabilities
01:00:09 INFO: http://thredds.cdip.ucsd.edu/thredds/sos/cdip/archive/156p1/156p1_d07.nc?service=SOS&version=1.0.0&request=GetCapabilities
01:00:09 INFO: http://thredds.cdip.ucsd.edu/thredds/sos/cdip/archive/162p1/162p1_d04.nc?service=SOS&version=1.0.0&request=GetCapabilities
01:00:09 INFO: http://thredds.cdip.ucsd.edu/thredds/sos/cdip/archive/166p1/166p1_d02.nc?service=SOS&version=1.0.0&request=GetCapabilities
01:00:09 INFO: http://thredds.cdip.ucsd.edu/thredds/sos/cdip/archive/168p1/168p1_d05.nc?service=SOS&version=1.0.0&request=GetCapabilities
01:00:09 INFO: http://thredds.cdip.ucsd.edu/thredds/sos/cdip/archive/179p1/179p1_d04.nc?service=SOS&version=1.0.0&request=GetCapabilities
01:00:09 INFO: http://thredds.cdip.ucsd.edu/thredds/sos/cdip/archive/185p1/185p1_d02.nc?service=SOS&version=1.0.0&request=GetCapabilities
01:00:09 INFO: http://thredds.cdip.ucsd.edu/thredds/sos/cdip/archive/185p1/185p1_d03.nc?service=SOS&version=1.0.0&request=GetCapabilities
01:00:09 INFO: http://thredds.cdip.ucsd.edu/thredds/sos/cdip/archive/190p1/190p1_d02.nc?service=SOS&version=1.0.0&request=GetCapabilities
01:00:09 INFO: http://thredds.cdip.ucsd.edu/thredds/sos/cdip/archive/190p1/190p1_historic.nc?service=SOS&version=1.0.0&request=GetCapabilities
01:00:09 INFO: http://thredds.cdip.ucsd.edu/thredds/sos/cdip/archive/191p1/191p1_d12.nc?service=SOS&version=1.0.0&request=GetCapabilities
01:00:09 INFO: http://thredds.cdip.ucsd.edu/thredds/sos/cdip/archive/192p1/192p1_d02.nc?service=SOS&version=1.0.0&request=GetCapabilities
01:00:09 INFO: http://thredds.cdip.ucsd.edu/thredds/sos/cdip/archive/192p1/192p1_historic.nc?service=SOS&version=1.0.0&request=GetCapabilities
01:00:09 INFO: http://thredds.cdip.ucsd.edu/thredds/sos/cdip/archive/201p1/201p1_d02.nc?service=SOS&version=1.0.0&request=GetCapabilities
01:00:09 INFO: http://thredds.cdip.ucsd.edu/thredds/sos/cdip/archive/203p1/203p1_d01.nc?service=SOS&version=1.0.0&request=GetCapabilities
01:00:10 WARNING: USEAST not in the NGDC csw
01:00:10 WARNING: USF_SWAN not in the NGDC csw
01:00:18 WARNING: /home/filipe/miniconda/envs/SECOORA/lib/python2.7/site-packages/iris/fileformats/_pyke_rules/compiled_krb/fc_rules_cf_fc.py:1359: UserWarning: Failed to create 'time' dimension coordinate: The points array must be strictly monotonic.
Gracefully creating 'time' auxiliary coordinate instead.
  error=e_msg))

01:00:24 WARNING: Cannot get cube for: http://129.252.139.124/thredds/dodsC/usf.nfb.ngwlms.nc
Cube does not contain ['sea_water_temperature', 'sea_surface_temperature', 'sea_water_potential_temperature', 'equivalent_potential_temperature', 'sea_water_conservative_temperature', 'pseudo_equivalent_potential_temperature']
01:00:34 WARNING: Cannot get cube for: http://129.252.139.124/thredds/dodsC/usf.tas.ngwlms.nc
Cube does not contain ['sea_water_temperature', 'sea_surface_temperature', 'sea_water_potential_temperature', 'equivalent_potential_temperature', 'sea_water_conservative_temperature', 'pseudo_equivalent_potential_temperature']
01:00:46 WARNING: Cannot get cube for: http://129.252.139.124/thredds/dodsC/usf.apk.ngwlms.nc
Cube does not contain ['sea_water_temperature', 'sea_surface_temperature', 'sea_water_potential_temperature', 'equivalent_potential_temperature', 'sea_water_conservative_temperature', 'pseudo_equivalent_potential_temperature']
01:00:55 WARNING: Cannot get cube for: http://129.252.139.124/thredds/dodsC/usf.c21.weatherpak.nc
Cube does not contain ['sea_water_temperature', 'sea_surface_temperature', 'sea_water_potential_temperature', 'equivalent_potential_temperature', 'sea_water_conservative_temperature', 'pseudo_equivalent_potential_temperature']
01:01:19 WARNING: Cannot get cube for: http://129.252.139.124/thredds/dodsC/usf.bcp.ngwlms.nc
Cube does not contain ['sea_water_temperature', 'sea_surface_temperature', 'sea_water_potential_temperature', 'equivalent_potential_temperature', 'sea_water_conservative_temperature', 'pseudo_equivalent_potential_temperature']
01:01:33 WARNING: Cannot get cube for: http://129.252.139.124/thredds/dodsC/usf.fhp.ngwlms.nc
Cube does not contain ['sea_water_temperature', 'sea_surface_temperature', 'sea_water_potential_temperature', 'equivalent_potential_temperature', 'sea_water_conservative_temperature', 'pseudo_equivalent_potential_temperature']
01:01:38 WARNING: Cannot get cube for: http://129.252.139.124/thredds/dodsC/usf.c10.mcat.nc
istart must be different from istop! Got istart 48233 and  istop 48233
01:01:41 WARNING: Cannot get cube for: http://129.252.139.124/thredds/dodsC/usf.c12.mcat.nc
istart must be different from istop! Got istart 18711 and  istop 18711
01:01:44 WARNING: Cannot get cube for: http://129.252.139.124/thredds/dodsC/usf.c13.mcat.nc
istart must be different from istop! Got istart 18099 and  istop 18099
01:01:47 WARNING: Cannot get cube for: http://129.252.139.124/thredds/dodsC/usf.c10.mcat_2011.nc
istart must be different from istop! Got istart 26303 and  istop 26303
01:01:49 WARNING: Cannot get cube for: http://129.252.139.124/thredds/dodsC/usf.c12.mcat_2011.nc
istart must be different from istop! Got istart 26303 and  istop 26303
01:01:52 WARNING: Cannot get cube for: http://129.252.139.124/thredds/dodsC/usf.c13.mcat_2011.nc
istart must be different from istop! Got istart 26303 and  istop 26303
01:02:04 WARNING: Cannot get cube for: http://129.252.139.124/thredds/dodsC/carocoops.frp2.buoy.nc
Cube does not contain ['sea_water_temperature', 'sea_surface_temperature', 'sea_water_potential_temperature', 'equivalent_potential_temperature', 'sea_water_conservative_temperature', 'pseudo_equivalent_potential_temperature']
01:02:11 WARNING: Cannot get cube for: http://129.252.139.124/thredds/dodsC/carocoops.cap2.buoy.nc
Cube does not contain ['sea_water_temperature', 'sea_surface_temperature', 'sea_water_potential_temperature', 'equivalent_potential_temperature', 'sea_water_conservative_temperature', 'pseudo_equivalent_potential_temperature']
01:02:35 WARNING: Cannot get cube for: http://129.252.139.124/thredds/dodsC/cormp.ilm1.buoy.nc
istart must be different from istop! Got istart 1443 and  istop 1443
01:02:41 WARNING: Cannot get cube for: http://129.252.139.124/thredds/dodsC/cormp.lej3.buoy.nc
istart must be different from istop! Got istart 91490 and  istop 91490
01:02:45 WARNING: /home/filipe/miniconda/envs/SECOORA/lib/python2.7/site-packages/iris/fileformats/_pyke_rules/compiled_krb/fc_rules_cf_fc.py:1196: UserWarning: Ignoring netCDF variable 'dissolved_oxygen_saturation' invalid units 'mg_L-1'
  warnings.warn(msg.format(msg_name, msg_units))

01:02:47 WARNING: /home/filipe/miniconda/envs/SECOORA/lib/python2.7/site-packages/iris/fileformats/_pyke_rules/compiled_krb/fc_rules_cf_fc.py:1196: UserWarning: Ignoring netCDF variable 'dissolved_oxygen' invalid units 'mg_L-1'
  warnings.warn(msg.format(msg_name, msg_units))

01:02:47 WARNING: /home/filipe/miniconda/envs/SECOORA/lib/python2.7/site-packages/iris/fileformats/_pyke_rules/compiled_krb/fc_rules_cf_fc.py:1196: UserWarning: Ignoring netCDF variable 'cdom' invalid units 'QSDE'
  warnings.warn(msg.format(msg_name, msg_units))

01:02:47 WARNING: /home/filipe/miniconda/envs/SECOORA/lib/python2.7/site-packages/iris/fileformats/_pyke_rules/compiled_krb/fc_rules_cf_fc.py:1196: UserWarning: Ignoring netCDF variable 'turbidity' invalid units 'ntu'
  warnings.warn(msg.format(msg_name, msg_units))

01:02:47 WARNING: /home/filipe/miniconda/envs/SECOORA/lib/python2.7/site-packages/iris/fileformats/_pyke_rules/compiled_krb/fc_rules_cf_fc.py:1196: UserWarning: Ignoring netCDF variable 'conductivity' invalid units 'mS_cm-1'
  warnings.warn(msg.format(msg_name, msg_units))

01:02:53 WARNING: /home/filipe/miniconda/envs/SECOORA/lib/python2.7/site-packages/iris/fileformats/_pyke_rules/compiled_krb/fc_rules_cf_fc.py:1196: UserWarning: Ignoring netCDF variable 'nitrate' invalid units 'uM'
  warnings.warn(msg.format(msg_name, msg_units))

01:03:19 WARNING: /home/filipe/miniconda/envs/SECOORA/lib/python2.7/site-packages/iris/fileformats/_pyke_rules/compiled_krb/fc_rules_cf_fc.py:1196: UserWarning: Ignoring netCDF variable 'conductivity_2' invalid units 'mS_cm-1'
  warnings.warn(msg.format(msg_name, msg_units))

01:03:29 WARNING: Cannot get cube for: http://129.252.139.124/thredds/dodsC/fldep.poncedeleonsouth..nc
Cube does not contain ['sea_water_temperature', 'sea_surface_temperature', 'sea_water_potential_temperature', 'equivalent_potential_temperature', 'sea_water_conservative_temperature', 'pseudo_equivalent_potential_temperature']
01:03:41 WARNING: Cannot get cube for: http://129.252.139.124/thredds/dodsC/fldep.redbaypoint..nc
Cube does not contain ['sea_water_temperature', 'sea_surface_temperature', 'sea_water_potential_temperature', 'equivalent_potential_temperature', 'sea_water_conservative_temperature', 'pseudo_equivalent_potential_temperature']
01:04:00 WARNING: Cannot get cube for: http://129.252.139.124/thredds/dodsC/fldep.naplesbay..nc
Cube does not contain ['sea_water_temperature', 'sea_surface_temperature', 'sea_water_potential_temperature', 'equivalent_potential_temperature', 'sea_water_conservative_temperature', 'pseudo_equivalent_potential_temperature']
01:04:09 WARNING: Cannot get cube for: http://129.252.139.124/thredds/dodsC/fldep.gordonriverinlet..nc
Cube does not contain ['sea_water_temperature', 'sea_surface_temperature', 'sea_water_potential_temperature', 'equivalent_potential_temperature', 'sea_water_conservative_temperature', 'pseudo_equivalent_potential_temperature']
01:04:19 WARNING: Cannot get cube for: http://129.252.139.124/thredds/dodsC/fldep.melbourne..nc
Cube does not contain ['sea_water_temperature', 'sea_surface_temperature', 'sea_water_potential_temperature', 'equivalent_potential_temperature', 'sea_water_conservative_temperature', 'pseudo_equivalent_potential_temperature']
01:04:25 WARNING: Cannot get cube for: http://129.252.139.124/thredds/dodsC/fldep.binneydock..nc
Cube does not contain ['sea_water_temperature', 'sea_surface_temperature', 'sea_water_potential_temperature', 'equivalent_potential_temperature', 'sea_water_conservative_temperature', 'pseudo_equivalent_potential_temperature']
01:04:37 WARNING: Cannot get cube for: http://129.252.139.124/thredds/dodsC/fldep.verobeach..nc
Cube does not contain ['sea_water_temperature', 'sea_surface_temperature', 'sea_water_potential_temperature', 'equivalent_potential_temperature', 'sea_water_conservative_temperature', 'pseudo_equivalent_potential_temperature']
01:04:46 WARNING: Cannot get cube for: http://129.252.139.124/thredds/dodsC/lbhmc.2ndave.pier.nc
Cube does not contain ['sea_water_temperature', 'sea_surface_temperature', 'sea_water_potential_temperature', 'equivalent_potential_temperature', 'sea_water_conservative_temperature', 'pseudo_equivalent_potential_temperature']
01:04:52 WARNING: /home/filipe/miniconda/envs/SECOORA/lib/python2.7/site-packages/iris/fileformats/_pyke_rules/compiled_krb/fc_rules_cf_fc.py:1196: UserWarning: Ignoring netCDF variable 'turbidity_2' invalid units 'ntu'
  warnings.warn(msg.format(msg_name, msg_units))

01:04:53 WARNING: /home/filipe/miniconda/envs/SECOORA/lib/python2.7/site-packages/iris/fileformats/_pyke_rules/compiled_krb/fc_rules_cf_fc.py:1196: UserWarning: Ignoring netCDF variable 'dissolved_oxygen_2' invalid units 'mg_L-1'
  warnings.warn(msg.format(msg_name, msg_units))

01:06:17 WARNING: Cannot get cube for: http://129.252.139.124/thredds/dodsC/enp.ppta1.met.nc
Cube does not contain ['sea_water_temperature', 'sea_surface_temperature', 'sea_water_potential_temperature', 'equivalent_potential_temperature', 'sea_water_conservative_temperature', 'pseudo_equivalent_potential_temperature']
01:07:04 WARNING: /home/filipe/miniconda/envs/SECOORA/lib/python2.7/site-packages/iris/fileformats/_pyke_rules/compiled_krb/fc_rules_cf_fc.py:1196: UserWarning: Ignoring netCDF variable 'phosphate' invalid units 'uM'
  warnings.warn(msg.format(msg_name, msg_units))

01:07:04 WARNING: /home/filipe/miniconda/envs/SECOORA/lib/python2.7/site-packages/iris/fileformats/_pyke_rules/compiled_krb/fc_rules_cf_fc.py:1196: UserWarning: Ignoring netCDF variable 'photosynthetically_available_radiation' invalid units 'micromoles_per_m^2'
  warnings.warn(msg.format(msg_name, msg_units))

01:07:16 INFO: ********************* Collector offerings **********************
01:07:16 INFO: NOAA.NOS.CO-OPS SOS: 1030 offerings
01:07:17 INFO: SOS URL request: http://opendap.co-ops.nos.noaa.gov/ioos-dif-sos/SOS?eventTime=2014-06-30T12%3A00%3A00Z&service=SOS&offering=urn%3Aioos%3Anetwork%3ANOAA.NOS.CO-OPS%3AMetActive&request=GetObservation&version=1.0.0&responseFormat=text%2Fcsv&featureOfInterest=BBOX%3A-87.4%2C24.25%2C-74.7%2C36.7&observedProperty=sea_water_temperature
01:09:26 INFO: ************************* Observations *************************
01:09:26 INFO: **** Downloading to file 2014-07-07/2014-07-07-OBS_DATA.nc *****
01:10:19 INFO: ********************* SECOORA Observations *********************
01:10:19 INFO:  Downloading to file 2014-07-07/2014-07-07-SECOORA_OBS_DATA.nc *
01:10:19 INFO: **************************** Models ****************************
01:10:19 INFO: 
[Reading url 1/43]: http://crow.marine.usf.edu:8080/thredds/dodsC/FVCOM-Nowcast-Agg.nc
01:15:14 WARNING: Cannot get cube for: http://crow.marine.usf.edu:8080/thredds/dodsC/FVCOM-Nowcast-Agg.nc
Timed out!
01:15:14 INFO: 
[Reading url 2/43]: http://crow.marine.usf.edu:8080/thredds/dodsC/WFS_ROMS_NF_model/USF_Ocean_Circulation_Group_West_Florida_Shelf_Daily_ROMS_Nowcast_Forecast_Model_Data_best.ncd
01:15:19 INFO: 
[Reading url 3/43]: http://geoport.whoi.edu/thredds/dodsC/coawst_4/use/fmrc/coawst_4_use_best.ncd
01:16:43 INFO: 
[Reading url 4/43]: http://omgsrv1.meas.ncsu.edu:8080/thredds/dodsC/fmrc/sabgom/SABGOM_Forecast_Model_Run_Collection_best.ncd
01:17:11 WARNING: Cannot get cube for: http://omgsrv1.meas.ncsu.edu:8080/thredds/dodsC/fmrc/sabgom/SABGOM_Forecast_Model_Run_Collection_best.ncd
istart must be different from istop! Got istart 0 and  istop 0
01:17:11 INFO: 
[Reading url 5/43]: http://oos.soest.hawaii.edu/thredds/dodsC/hioos/satellite/dhw
01:17:13 INFO: 
[Reading url 6/43]: http://oos.soest.hawaii.edu/thredds/dodsC/pacioos/hycom/global
01:17:15 INFO: 
[Reading url 7/43]: http://tds.marine.rutgers.edu/thredds/dodsC/roms/espresso/2013_da/his_Best/ESPRESSO_Real-Time_v2_History_Best_Available_best.ncd
01:17:23 INFO: 
[Reading url 8/43]: http://thredds.axiomalaska.com/thredds/dodsC/G1_SST_GLOBAL.nc
01:17:34 INFO: 
[Reading url 9/43]: http://thredds.cdip.ucsd.edu/thredds/dodsC/cdip/archive/029p1/029p1_d19.nc
01:17:36 WARNING: Cannot get cube for: http://thredds.cdip.ucsd.edu/thredds/dodsC/cdip/archive/029p1/029p1_d19.nc
No cube using [-87.4, 24.25, -74.7, 36.7]
01:17:36 INFO: 
[Reading url 10/43]: http://thredds.cdip.ucsd.edu/thredds/dodsC/cdip/archive/029p1/029p1_historic.nc
01:17:48 WARNING: Cannot get cube for: http://thredds.cdip.ucsd.edu/thredds/dodsC/cdip/archive/029p1/029p1_historic.nc
No cube using [-87.4, 24.25, -74.7, 36.7]
01:17:48 INFO: 
[Reading url 11/43]: http://thredds.cdip.ucsd.edu/thredds/dodsC/cdip/archive/036p1/036p1_d40.nc
01:17:50 WARNING: Cannot get cube for: http://thredds.cdip.ucsd.edu/thredds/dodsC/cdip/archive/036p1/036p1_d40.nc
No cube using [-87.4, 24.25, -74.7, 36.7]
01:17:50 INFO: 
[Reading url 12/43]: http://thredds.cdip.ucsd.edu/thredds/dodsC/cdip/archive/043p1/043p1_d16.nc
01:17:52 WARNING: Cannot get cube for: http://thredds.cdip.ucsd.edu/thredds/dodsC/cdip/archive/043p1/043p1_d16.nc
No cube using [-87.4, 24.25, -74.7, 36.7]
01:17:52 INFO: 
[Reading url 13/43]: http://thredds.cdip.ucsd.edu/thredds/dodsC/cdip/archive/043p1/043p1_d17.nc
01:17:54 WARNING: Cannot get cube for: http://thredds.cdip.ucsd.edu/thredds/dodsC/cdip/archive/043p1/043p1_d17.nc
No cube using [-87.4, 24.25, -74.7, 36.7]
01:17:54 INFO: 
[Reading url 14/43]: http://thredds.cdip.ucsd.edu/thredds/dodsC/cdip/archive/045p1/045p1_historic.nc
01:18:06 WARNING: Cannot get cube for: http://thredds.cdip.ucsd.edu/thredds/dodsC/cdip/archive/045p1/045p1_historic.nc
No cube using [-87.4, 24.25, -74.7, 36.7]
01:18:06 INFO: 
[Reading url 15/43]: http://thredds.cdip.ucsd.edu/thredds/dodsC/cdip/archive/067p1/067p1_d22.nc
01:18:08 WARNING: Cannot get cube for: http://thredds.cdip.ucsd.edu/thredds/dodsC/cdip/archive/067p1/067p1_d22.nc
No cube using [-87.4, 24.25, -74.7, 36.7]
01:18:08 INFO: 
[Reading url 16/43]: http://thredds.cdip.ucsd.edu/thredds/dodsC/cdip/archive/067p1/067p1_historic.nc
01:18:25 WARNING: Cannot get cube for: http://thredds.cdip.ucsd.edu/thredds/dodsC/cdip/archive/067p1/067p1_historic.nc
No cube using [-87.4, 24.25, -74.7, 36.7]
01:18:25 INFO: 
[Reading url 17/43]: http://thredds.cdip.ucsd.edu/thredds/dodsC/cdip/archive/076p1/076p1_d27.nc
01:18:27 WARNING: Cannot get cube for: http://thredds.cdip.ucsd.edu/thredds/dodsC/cdip/archive/076p1/076p1_d27.nc
No cube using [-87.4, 24.25, -74.7, 36.7]
01:18:27 INFO: 
[Reading url 18/43]: http://thredds.cdip.ucsd.edu/thredds/dodsC/cdip/archive/093p1/093p1_d40.nc
01:18:29 WARNING: Cannot get cube for: http://thredds.cdip.ucsd.edu/thredds/dodsC/cdip/archive/093p1/093p1_d40.nc
No cube using [-87.4, 24.25, -74.7, 36.7]
01:18:29 INFO: 
[Reading url 19/43]: http://thredds.cdip.ucsd.edu/thredds/dodsC/cdip/archive/098p1/098p1_historic.nc
01:18:41 WARNING: Cannot get cube for: http://thredds.cdip.ucsd.edu/thredds/dodsC/cdip/archive/098p1/098p1_historic.nc
No cube using [-87.4, 24.25, -74.7, 36.7]
01:18:41 INFO: 
[Reading url 20/43]: http://thredds.cdip.ucsd.edu/thredds/dodsC/cdip/archive/100p1/100p1_d13.nc
01:18:43 WARNING: Cannot get cube for: http://thredds.cdip.ucsd.edu/thredds/dodsC/cdip/archive/100p1/100p1_d13.nc
No cube using [-87.4, 24.25, -74.7, 36.7]
01:18:43 INFO: 
[Reading url 21/43]: http://thredds.cdip.ucsd.edu/thredds/dodsC/cdip/archive/100p1/100p1_historic.nc
01:19:26 WARNING: Cannot get cube for: http://thredds.cdip.ucsd.edu/thredds/dodsC/cdip/archive/100p1/100p1_historic.nc
No cube using [-87.4, 24.25, -74.7, 36.7]
01:19:26 INFO: 
[Reading url 22/43]: http://thredds.cdip.ucsd.edu/thredds/dodsC/cdip/archive/132p1/132p1_d11.nc
01:19:28 WARNING: url http://thredds.cdip.ucsd.edu/thredds/dodsC/cdip/archive/132p1/132p1_d11.nc is probably a timeSeries!
01:19:28 INFO: 
[Reading url 23/43]: http://thredds.cdip.ucsd.edu/thredds/dodsC/cdip/archive/132p1/132p1_historic.nc
01:19:36 WARNING: url http://thredds.cdip.ucsd.edu/thredds/dodsC/cdip/archive/132p1/132p1_historic.nc is probably a timeSeries!
01:19:36 INFO: 
[Reading url 24/43]: http://thredds.cdip.ucsd.edu/thredds/dodsC/cdip/archive/142p1/142p1_d14.nc
01:19:42 WARNING: Cannot get cube for: http://thredds.cdip.ucsd.edu/thredds/dodsC/cdip/archive/142p1/142p1_d14.nc
No cube using [-87.4, 24.25, -74.7, 36.7]
01:19:42 INFO: 
[Reading url 25/43]: http://thredds.cdip.ucsd.edu/thredds/dodsC/cdip/archive/142p1/142p1_historic.nc
01:19:48 WARNING: Cannot get cube for: http://thredds.cdip.ucsd.edu/thredds/dodsC/cdip/archive/142p1/142p1_historic.nc
No cube using [-87.4, 24.25, -74.7, 36.7]
01:19:48 INFO: 
[Reading url 26/43]: http://thredds.cdip.ucsd.edu/thredds/dodsC/cdip/archive/150p1/150p1_d07.nc
01:19:50 WARNING: url http://thredds.cdip.ucsd.edu/thredds/dodsC/cdip/archive/150p1/150p1_d07.nc is probably a timeSeries!
01:19:50 INFO: 
[Reading url 27/43]: http://thredds.cdip.ucsd.edu/thredds/dodsC/cdip/archive/150p1/150p1_historic.nc
01:19:56 WARNING: url http://thredds.cdip.ucsd.edu/thredds/dodsC/cdip/archive/150p1/150p1_historic.nc is probably a timeSeries!
01:19:56 INFO: 
[Reading url 28/43]: http://thredds.cdip.ucsd.edu/thredds/dodsC/cdip/archive/156p1/156p1_d07.nc
01:19:58 WARNING: Cannot get cube for: http://thredds.cdip.ucsd.edu/thredds/dodsC/cdip/archive/156p1/156p1_d07.nc
No cube using [-87.4, 24.25, -74.7, 36.7]
01:19:58 INFO: 
[Reading url 29/43]: http://thredds.cdip.ucsd.edu/thredds/dodsC/cdip/archive/162p1/162p1_d04.nc
01:20:04 WARNING: Cannot get cube for: http://thredds.cdip.ucsd.edu/thredds/dodsC/cdip/archive/162p1/162p1_d04.nc
No cube using [-87.4, 24.25, -74.7, 36.7]
01:20:04 INFO: 
[Reading url 30/43]: http://thredds.cdip.ucsd.edu/thredds/dodsC/cdip/archive/166p1/166p1_d02.nc
01:20:09 WARNING: Cannot get cube for: http://thredds.cdip.ucsd.edu/thredds/dodsC/cdip/archive/166p1/166p1_d02.nc
No cube using [-87.4, 24.25, -74.7, 36.7]
01:20:09 INFO: 
[Reading url 31/43]: http://thredds.cdip.ucsd.edu/thredds/dodsC/cdip/archive/168p1/168p1_d05.nc
01:20:11 WARNING: Cannot get cube for: http://thredds.cdip.ucsd.edu/thredds/dodsC/cdip/archive/168p1/168p1_d05.nc
No cube using [-87.4, 24.25, -74.7, 36.7]
01:20:11 INFO: 
[Reading url 32/43]: http://thredds.cdip.ucsd.edu/thredds/dodsC/cdip/archive/179p1/179p1_d04.nc
01:20:13 WARNING: Cannot get cube for: http://thredds.cdip.ucsd.edu/thredds/dodsC/cdip/archive/179p1/179p1_d04.nc
No cube using [-87.4, 24.25, -74.7, 36.7]
01:20:13 INFO: 
[Reading url 33/43]: http://thredds.cdip.ucsd.edu/thredds/dodsC/cdip/archive/185p1/185p1_d02.nc
01:20:16 WARNING: Cannot get cube for: http://thredds.cdip.ucsd.edu/thredds/dodsC/cdip/archive/185p1/185p1_d02.nc
No cube using [-87.4, 24.25, -74.7, 36.7]
01:20:16 INFO: 
[Reading url 34/43]: http://thredds.cdip.ucsd.edu/thredds/dodsC/cdip/archive/185p1/185p1_d03.nc
01:20:18 WARNING: Cannot get cube for: http://thredds.cdip.ucsd.edu/thredds/dodsC/cdip/archive/185p1/185p1_d03.nc
No cube using [-87.4, 24.25, -74.7, 36.7]
01:20:18 INFO: 
[Reading url 35/43]: http://thredds.cdip.ucsd.edu/thredds/dodsC/cdip/archive/190p1/190p1_d02.nc
01:20:20 WARNING: url http://thredds.cdip.ucsd.edu/thredds/dodsC/cdip/archive/190p1/190p1_d02.nc is probably a timeSeries!
01:20:20 INFO: 
[Reading url 36/43]: http://thredds.cdip.ucsd.edu/thredds/dodsC/cdip/archive/190p1/190p1_historic.nc
01:20:27 WARNING: url http://thredds.cdip.ucsd.edu/thredds/dodsC/cdip/archive/190p1/190p1_historic.nc is probably a timeSeries!
01:20:27 INFO: 
[Reading url 37/43]: http://thredds.cdip.ucsd.edu/thredds/dodsC/cdip/archive/191p1/191p1_d12.nc
01:20:29 WARNING: Cannot get cube for: http://thredds.cdip.ucsd.edu/thredds/dodsC/cdip/archive/191p1/191p1_d12.nc
No cube using [-87.4, 24.25, -74.7, 36.7]
01:20:29 INFO: 
[Reading url 38/43]: http://thredds.cdip.ucsd.edu/thredds/dodsC/cdip/archive/192p1/192p1_d02.nc
01:20:36 WARNING: url http://thredds.cdip.ucsd.edu/thredds/dodsC/cdip/archive/192p1/192p1_d02.nc is probably a timeSeries!
01:20:36 INFO: 
[Reading url 39/43]: http://thredds.cdip.ucsd.edu/thredds/dodsC/cdip/archive/192p1/192p1_historic.nc
01:20:40 WARNING: url http://thredds.cdip.ucsd.edu/thredds/dodsC/cdip/archive/192p1/192p1_historic.nc is probably a timeSeries!
01:20:40 INFO: 
[Reading url 40/43]: http://thredds.cdip.ucsd.edu/thredds/dodsC/cdip/archive/201p1/201p1_d02.nc
01:20:47 WARNING: Cannot get cube for: http://thredds.cdip.ucsd.edu/thredds/dodsC/cdip/archive/201p1/201p1_d02.nc
No cube using [-87.4, 24.25, -74.7, 36.7]
01:20:47 INFO: 
[Reading url 41/43]: http://thredds.cdip.ucsd.edu/thredds/dodsC/cdip/archive/203p1/203p1_d01.nc
01:20:49 WARNING: Cannot get cube for: http://thredds.cdip.ucsd.edu/thredds/dodsC/cdip/archive/203p1/203p1_d01.nc
No cube using [-87.4, 24.25, -74.7, 36.7]
01:20:49 INFO: 
[Reading url 42/43]: http://omgsrv1.meas.ncsu.edu:8080/thredds/dodsC/fmrc/us_east/US_East_Forecast_Model_Run_Collection_best.ncd
01:21:11 WARNING: Cannot get cube for: http://omgsrv1.meas.ncsu.edu:8080/thredds/dodsC/fmrc/us_east/US_East_Forecast_Model_Run_Collection_best.ncd
istart must be different from istop! Got istart 0 and  istop 0
01:21:11 INFO: 
[Reading url 43/43]: http://crow.marine.usf.edu:8080/thredds/dodsC/WFS_SWAN_NF_model/USF_Ocean_Circulation_Group_West_Florida_Shelf_Daily_SWAN_Nowcast_Forecast_Wave_Model_Data_best.ncd
01:21:12 WARNING: Cannot get cube for: http://crow.marine.usf.edu:8080/thredds/dodsC/WFS_SWAN_NF_model/USF_Ocean_Circulation_Group_West_Florida_Shelf_Daily_SWAN_Nowcast_Forecast_Wave_Model_Data_best.ncd
Cube does not contain ['sea_water_temperature', 'sea_surface_temperature', 'sea_water_potential_temperature', 'equivalent_potential_temperature', 'sea_water_conservative_temperature', 'pseudo_equivalent_potential_temperature']
01:21:12 INFO: ****** Downloading to file 2014-07-07/2014-07-07-HYCOM.nc ******
01:21:14 INFO: [Land   ] Duck, NC
01:21:16 INFO: [Water  ] Oregon Inlet Marina, NC
01:21:19 INFO: [Land   ] USCG Station Hatteras, NC
01:21:21 INFO: [Land   ] Beaufort, NC
01:21:23 INFO: [Land   ] Wilmington, NC
01:21:25 INFO: [Water  ] Wrightsville Beach, NC
01:21:25 INFO: [No Data] Springmaid Pier, SC
01:21:28 INFO: [Land   ] Charleston, SC
01:21:30 INFO: [Land   ] Fort Pulaski, GA
01:21:32 INFO: [Land   ] Fernandina Beach, FL
01:21:35 INFO: [Land   ] Mayport (Bar Pilots Dock), FL
01:21:39 INFO: [Land   ] Dames Point, FL
01:21:41 INFO: [Land   ] Jacksonville University, FL
01:21:44 INFO: [Land   ] I-295 Bridge, St Johns River, FL
01:21:47 INFO: [Land   ] Red Bay Point, St Johns River, FL
01:21:47 INFO: [No Data] Racy Point, St Johns River, FL
01:21:49 INFO: [Land   ] Trident Pier, FL
01:21:51 INFO: [Water  ] Lake Worth Pier, FL
01:21:53 INFO: [Land   ] Vaca Key, FL
01:21:56 INFO: [Land   ] Key West, FL
01:21:56 INFO: [No Data] Naples, FL
01:21:58 INFO: [Land   ] Fort Myers, FL
01:22:01 INFO: [Land   ] Port Manatee, FL
01:22:03 INFO: [Land   ] St Petersburg, FL
01:22:06 INFO: [Land   ] Old Port Tampa, FL
01:22:08 INFO: [Land   ] Apalachicola, FL
01:22:10 INFO: [Land   ] Panama City, FL
01:22:10 INFO: [No Data] Panama City Beach, FL
01:22:13 INFO: [Land   ] Pensacola, FL
01:22:15 INFO: [Land   ] Tolomato River station
01:22:17 INFO: [Land   ] Duck Key, FL
01:22:19 INFO: [Land   ] Broad River Lower, FL
01:22:22 INFO: [Land   ] Cherry Grove Pier, N. Myrtle Beach, SC
01:22:24 INFO: [Land   ] Gulf of Mexico station
01:22:27 INFO: [Land   ] Shell Point
01:22:29 INFO: [Land   ] Taylor River, FL
01:22:31 INFO: [Land   ] Redfish Pass station
01:22:34 INFO: [Land   ] Little Rabbit Key, FL
01:22:36 INFO: [Land   ] Peterson Key, FL
01:22:36 INFO: [No Data] Fort Myers station
01:22:36 INFO: [No Data] Highway Creek, FL
01:22:36 INFO: [No Data] CORMP ILM2, Wrightsville Beach Nearshore, NC
01:22:38 INFO: [Land   ] Clear Water Pass, FL 
01:22:40 INFO: [Land   ] Tarpon Bay station
01:22:43 INFO: [Land   ] Gunboat Island, FL
01:22:45 INFO: [Land   ] Cannon Bay, FL
01:22:48 INFO: [Land   ] Murray Key, FL
01:22:48 INFO: [No Data] Blackwater Sound, FL
01:22:51 INFO: [Land   ] Butternut Key, FL
01:22:53 INFO: [Land   ] Shell Point station
01:22:56 INFO: [Land   ] Whipray Basin, FL
01:22:58 INFO: [Land   ] Apache Pier, Myrtle Beach, SC
01:23:01 INFO: [Land   ] Garfield Bight, FL
01:23:04 INFO: [Land   ] Lane River, FL 
01:23:06 INFO: [Land   ] Little Blackwater, FL
01:23:09 INFO: [Land   ] Little Madeira, FL
01:23:11 INFO: [Land   ] St Lucie Inlet station
01:23:14 INFO: [Land   ] White Water -West, FL
01:23:16 INFO: [Land   ] fau_lobo_1
01:23:19 INFO: [Water  ] CORMP ILM3, Wrightsville Beach Offshore, NC
01:23:19 INFO: [No Data] Broad River, FL
01:23:21 INFO: [Land   ] Willy Willy, FL
01:23:25 INFO: [Land   ] Cane Patch, FL
01:23:27 INFO: [Land   ] Sebastian Inlet met station
01:23:30 INFO: [Water  ] CAROCOOPS SUN2, Sunset Nearshore, NC
01:23:33 INFO: [Land   ] Bing&#39;s Landing station
01:23:33 INFO: [No Data] Bob Allen, FL
01:23:35 INFO: [Land   ] Trout Cove, FL
01:23:37 INFO: [Land   ] Johnson Key, FL
01:23:38 INFO: Finished processing [HYCOM]: http://crow.marine.usf.edu:8080/thredds/dodsC/WFS_SWAN_NF_model/USF_Ocean_Circulation_Group_West_Florida_Shelf_Daily_SWAN_Nowcast_Forecast_Wave_Model_Data_best.ncd

01:23:38 INFO: **** Downloading to file 2014-07-07/2014-07-07-USF_ROMS.nc *****
01:23:38 INFO: [No Data] Duck, NC
01:23:38 INFO: [No Data] Oregon Inlet Marina, NC
01:23:38 INFO: [No Data] USCG Station Hatteras, NC
01:23:38 INFO: [No Data] Beaufort, NC
01:23:38 INFO: [No Data] Wilmington, NC
01:23:38 INFO: [No Data] Wrightsville Beach, NC
01:23:38 INFO: [No Data] Springmaid Pier, SC
01:23:38 INFO: [No Data] Charleston, SC
01:23:38 INFO: [No Data] Fort Pulaski, GA
01:23:38 INFO: [No Data] Fernandina Beach, FL
01:23:38 INFO: [No Data] Mayport (Bar Pilots Dock), FL
01:23:38 INFO: [No Data] Dames Point, FL
01:23:38 INFO: [No Data] Jacksonville University, FL
01:23:38 INFO: [No Data] I-295 Bridge, St Johns River, FL
01:23:38 INFO: [No Data] Red Bay Point, St Johns River, FL
01:23:38 INFO: [No Data] Racy Point, St Johns River, FL
01:23:38 INFO: [No Data] Trident Pier, FL
01:23:38 INFO: [No Data] Lake Worth Pier, FL
01:23:38 INFO: [No Data] Vaca Key, FL
01:23:38 INFO: [No Data] Key West, FL
01:23:39 INFO: [Water  ] Naples, FL
01:23:41 INFO: [Water  ] Fort Myers, FL
01:23:43 INFO: [Water  ] Port Manatee, FL
01:23:43 INFO: [No Data] St Petersburg, FL
01:23:45 INFO: [Water  ] Old Port Tampa, FL
01:23:47 INFO: [Water  ] Apalachicola, FL
01:23:50 INFO: [Water  ] Panama City, FL
01:23:52 INFO: [Water  ] Panama City Beach, FL
01:23:52 INFO: [No Data] Pensacola, FL
01:23:52 INFO: [No Data] Tolomato River station
01:23:52 INFO: [No Data] Duck Key, FL
01:23:54 INFO: [Water  ] Broad River Lower, FL
01:23:54 INFO: [No Data] Cherry Grove Pier, N. Myrtle Beach, SC
01:23:55 INFO: [Water  ] Gulf of Mexico station
01:23:59 INFO: [Water  ] Shell Point
01:23:59 INFO: [No Data] Taylor River, FL
01:24:00 INFO: [Water  ] Redfish Pass station
01:24:00 INFO: [No Data] Little Rabbit Key, FL
01:24:01 INFO: [Water  ] Peterson Key, FL
01:24:01 INFO: [No Data] Fort Myers station
01:24:03 INFO: [Water  ] Highway Creek, FL
01:24:03 INFO: [No Data] CORMP ILM2, Wrightsville Beach Nearshore, NC
01:24:04 INFO: [Water  ] Clear Water Pass, FL 
01:24:05 INFO: [Water  ] Tarpon Bay station
01:24:05 INFO: [No Data] Gunboat Island, FL
01:24:08 INFO: [Water  ] Cannon Bay, FL
01:24:10 INFO: [Water  ] Murray Key, FL
01:24:13 INFO: [Water  ] Blackwater Sound, FL
01:24:14 INFO: [Water  ] Butternut Key, FL
01:24:15 INFO: [Water  ] Shell Point station
01:24:15 INFO: [No Data] Whipray Basin, FL
01:24:15 INFO: [No Data] Apache Pier, Myrtle Beach, SC
01:24:15 INFO: [No Data] Garfield Bight, FL
01:24:17 INFO: [Water  ] Lane River, FL 
01:24:18 INFO: [Water  ] Little Blackwater, FL
01:24:18 INFO: [No Data] Little Madeira, FL
01:24:18 INFO: [No Data] St Lucie Inlet station
01:24:18 INFO: [No Data] White Water -West, FL
01:24:18 INFO: [No Data] fau_lobo_1
01:24:18 INFO: [No Data] CORMP ILM3, Wrightsville Beach Offshore, NC
01:24:20 INFO: [Water  ] Broad River, FL
01:24:22 INFO: [Water  ] Willy Willy, FL
01:24:23 INFO: [Water  ] Cane Patch, FL
01:24:23 INFO: [No Data] Sebastian Inlet met station
01:24:23 INFO: [No Data] CAROCOOPS SUN2, Sunset Nearshore, NC
01:24:23 INFO: [No Data] Bing&#39;s Landing station
01:24:26 INFO: [Water  ] Bob Allen, FL
01:24:26 INFO: [No Data] Trout Cove, FL
01:24:27 INFO: [Water  ] Johnson Key, FL
01:26:04 INFO: Finished processing [USF_ROMS]: http://crow.marine.usf.edu:8080/thredds/dodsC/WFS_SWAN_NF_model/USF_Ocean_Circulation_Group_West_Florida_Shelf_Daily_SWAN_Nowcast_Forecast_Wave_Model_Data_best.ncd

01:26:04 INFO: **** Downloading to file 2014-07-07/2014-07-07-COAWST_4.nc *****
01:26:21 INFO: [Land   ] Duck, NC
01:26:51 INFO: [Water  ] Oregon Inlet Marina, NC
01:27:02 INFO: [Water  ] USCG Station Hatteras, NC
01:27:25 INFO: [Land   ] Beaufort, NC
01:27:35 INFO: [Land   ] Wilmington, NC
01:27:49 INFO: [Water  ] Wrightsville Beach, NC
01:28:20 INFO: [Water  ] Springmaid Pier, SC
01:28:32 INFO: [Land   ] Charleston, SC
01:28:44 INFO: [Land   ] Fort Pulaski, GA
01:28:59 INFO: [Land   ] Fernandina Beach, FL
01:29:14 INFO: [Land   ] Mayport (Bar Pilots Dock), FL
01:29:28 INFO: [Land   ] Dames Point, FL
01:29:47 INFO: [Land   ] Jacksonville University, FL
01:30:02 INFO: [Land   ] I-295 Bridge, St Johns River, FL
01:30:18 INFO: [Land   ] Red Bay Point, St Johns River, FL
01:30:33 INFO: [Land   ] Racy Point, St Johns River, FL
01:30:52 INFO: [Land   ] Trident Pier, FL
01:31:24 INFO: [Water  ] Lake Worth Pier, FL
01:31:39 INFO: [Land   ] Vaca Key, FL
01:32:13 INFO: [Water  ] Key West, FL
01:32:32 INFO: [Land   ] Naples, FL
01:32:47 INFO: [Land   ] Fort Myers, FL
01:33:03 INFO: [Land   ] Port Manatee, FL
01:33:16 INFO: [Land   ] St Petersburg, FL
01:33:48 INFO: [Water  ] Old Port Tampa, FL
01:34:04 INFO: [Water  ] Apalachicola, FL
01:34:20 INFO: [Water  ] Panama City, FL
01:34:47 INFO: [Land   ] Panama City Beach, FL
01:35:05 INFO: [Water  ] Pensacola, FL
01:35:18 INFO: [Land   ] Tolomato River station
01:35:35 INFO: [Water  ] Duck Key, FL
01:35:48 INFO: [Land   ] Broad River Lower, FL
01:36:04 INFO: [Land   ] Cherry Grove Pier, N. Myrtle Beach, SC
01:36:30 INFO: [Water  ] Gulf of Mexico station
01:36:48 INFO: [Land   ] Shell Point
01:36:59 INFO: [Land   ] Taylor River, FL
01:37:24 INFO: [Water  ] Redfish Pass station
01:37:36 INFO: [Water  ] Little Rabbit Key, FL
01:37:50 INFO: [Water  ] Peterson Key, FL
01:38:10 INFO: [Land   ] Fort Myers station
01:38:27 INFO: [Land   ] Highway Creek, FL
01:38:52 INFO: [Water  ] CORMP ILM2, Wrightsville Beach Nearshore, NC
01:39:07 INFO: [Water  ] Clear Water Pass, FL 
01:39:24 INFO: [Water  ] Tarpon Bay station
01:39:42 INFO: [Land   ] Gunboat Island, FL
01:39:59 INFO: [Land   ] Cannon Bay, FL
01:40:16 INFO: [Water  ] Murray Key, FL
01:40:30 INFO: [Land   ] Blackwater Sound, FL
01:41:03 INFO: [Water  ] Butternut Key, FL
01:41:36 INFO: [Land   ] Shell Point station
01:42:05 INFO: [Water  ] Whipray Basin, FL
01:42:20 INFO: [Land   ] Apache Pier, Myrtle Beach, SC
01:42:33 INFO: [Water  ] Garfield Bight, FL
01:42:49 INFO: [Land   ] Lane River, FL 
01:43:06 INFO: [Land   ] Little Blackwater, FL
01:43:26 INFO: [Water  ] Little Madeira, FL
01:43:58 INFO: [Water  ] St Lucie Inlet station
01:44:13 INFO: [Water  ] White Water -West, FL
01:44:29 INFO: [Land   ] fau_lobo_1
01:44:41 INFO: [Water  ] CORMP ILM3, Wrightsville Beach Offshore, NC
01:45:02 INFO: [Land   ] Broad River, FL
01:45:16 INFO: [Land   ] Willy Willy, FL
01:45:33 INFO: [Land   ] Cane Patch, FL
01:45:49 INFO: [Water  ] Sebastian Inlet met station
01:46:03 INFO: [Water  ] CAROCOOPS SUN2, Sunset Nearshore, NC
01:46:22 INFO: [Land   ] Bing&#39;s Landing station
01:46:42 INFO: [Water  ] Bob Allen, FL
01:46:59 INFO: [Land   ] Trout Cove, FL
01:47:15 INFO: [Water  ] Johnson Key, FL
02:06:58 INFO: Finished processing [COAWST_4]: http://crow.marine.usf.edu:8080/thredds/dodsC/WFS_SWAN_NF_model/USF_Ocean_Circulation_Group_West_Florida_Shelf_Daily_SWAN_Nowcast_Forecast_Wave_Model_Data_best.ncd

02:06:58 INFO: **** Downloading to file 2014-07-07/2014-07-07-ESPRESSO.nc *****
02:07:04 INFO: [Land   ] Duck, NC
02:07:10 INFO: [Water  ] Oregon Inlet Marina, NC
02:07:15 INFO: [Land   ] USCG Station Hatteras, NC
02:07:20 INFO: [Water  ] Beaufort, NC
02:07:20 INFO: [No Data] Wilmington, NC
02:07:20 INFO: [No Data] Wrightsville Beach, NC
02:07:20 INFO: [No Data] Springmaid Pier, SC
02:07:20 INFO: [No Data] Charleston, SC
02:07:20 INFO: [No Data] Fort Pulaski, GA
02:07:20 INFO: [No Data] Fernandina Beach, FL
02:07:20 INFO: [No Data] Mayport (Bar Pilots Dock), FL
02:07:20 INFO: [No Data] Dames Point, FL
02:07:20 INFO: [No Data] Jacksonville University, FL
02:07:20 INFO: [No Data] I-295 Bridge, St Johns River, FL
02:07:20 INFO: [No Data] Red Bay Point, St Johns River, FL
02:07:20 INFO: [No Data] Racy Point, St Johns River, FL
02:07:20 INFO: [No Data] Trident Pier, FL
02:07:20 INFO: [No Data] Lake Worth Pier, FL
02:07:20 INFO: [No Data] Vaca Key, FL
02:07:20 INFO: [No Data] Key West, FL
02:07:20 INFO: [No Data] Naples, FL
02:07:20 INFO: [No Data] Fort Myers, FL
02:07:20 INFO: [No Data] Port Manatee, FL
02:07:20 INFO: [No Data] St Petersburg, FL
02:07:20 INFO: [No Data] Old Port Tampa, FL
02:07:20 INFO: [No Data] Apalachicola, FL
02:07:20 INFO: [No Data] Panama City, FL
02:07:20 INFO: [No Data] Panama City Beach, FL
02:07:20 INFO: [No Data] Pensacola, FL
02:07:20 INFO: [No Data] Tolomato River station
02:07:20 INFO: [No Data] Duck Key, FL
02:07:20 INFO: [No Data] Broad River Lower, FL
02:07:20 INFO: [No Data] Cherry Grove Pier, N. Myrtle Beach, SC
02:07:20 INFO: [No Data] Gulf of Mexico station
02:07:20 INFO: [No Data] Shell Point
02:07:20 INFO: [No Data] Taylor River, FL
02:07:20 INFO: [No Data] Redfish Pass station
02:07:20 INFO: [No Data] Little Rabbit Key, FL
02:07:20 INFO: [No Data] Peterson Key, FL
02:07:20 INFO: [No Data] Fort Myers station
02:07:20 INFO: [No Data] Highway Creek, FL
02:07:20 INFO: [No Data] CORMP ILM2, Wrightsville Beach Nearshore, NC
02:07:20 INFO: [No Data] Clear Water Pass, FL 
02:07:20 INFO: [No Data] Tarpon Bay station
02:07:20 INFO: [No Data] Gunboat Island, FL
02:07:20 INFO: [No Data] Cannon Bay, FL
02:07:20 INFO: [No Data] Murray Key, FL
02:07:20 INFO: [No Data] Blackwater Sound, FL
02:07:20 INFO: [No Data] Butternut Key, FL
02:07:20 INFO: [No Data] Shell Point station
02:07:20 INFO: [No Data] Whipray Basin, FL
02:07:20 INFO: [No Data] Apache Pier, Myrtle Beach, SC
02:07:20 INFO: [No Data] Garfield Bight, FL
02:07:20 INFO: [No Data] Lane River, FL 
02:07:20 INFO: [No Data] Little Blackwater, FL
02:07:20 INFO: [No Data] Little Madeira, FL
02:07:20 INFO: [No Data] St Lucie Inlet station
02:07:20 INFO: [No Data] White Water -West, FL
02:07:20 INFO: [No Data] fau_lobo_1
02:07:20 INFO: [No Data] CORMP ILM3, Wrightsville Beach Offshore, NC
02:07:20 INFO: [No Data] Broad River, FL
02:07:20 INFO: [No Data] Willy Willy, FL
02:07:20 INFO: [No Data] Cane Patch, FL
02:07:20 INFO: [No Data] Sebastian Inlet met station
02:07:20 INFO: [No Data] CAROCOOPS SUN2, Sunset Nearshore, NC
02:07:20 INFO: [No Data] Bing&#39;s Landing station
02:07:20 INFO: [No Data] Bob Allen, FL
02:07:20 INFO: [No Data] Trout Cove, FL
02:07:20 INFO: [No Data] Johnson Key, FL
02:07:30 INFO: Finished processing [ESPRESSO]: http://crow.marine.usf.edu:8080/thredds/dodsC/WFS_SWAN_NF_model/USF_Ocean_Circulation_Group_West_Florida_Shelf_Daily_SWAN_Nowcast_Forecast_Wave_Model_Data_best.ncd

02:07:30 INFO:  Downloading to file 2014-07-07/2014-07-07-NECOFS_GOM3_WAVE.nc *
02:07:58 INFO: [Water  ] Duck, NC
02:08:14 INFO: [Water  ] Oregon Inlet Marina, NC
02:08:31 INFO: [Water  ] USCG Station Hatteras, NC
02:08:46 INFO: [Land   ] Beaufort, NC
02:08:48 INFO: [Land   ] Wilmington, NC
02:09:07 INFO: [Land   ] Wrightsville Beach, NC
02:09:11 INFO: [Land   ] Springmaid Pier, SC
02:09:12 INFO: [Land   ] Charleston, SC
02:09:28 INFO: [Water  ] Fort Pulaski, GA
02:09:30 INFO: [Land   ] Fernandina Beach, FL
02:09:32 INFO: [Land   ] Mayport (Bar Pilots Dock), FL
02:09:33 INFO: [Land   ] Dames Point, FL
02:09:35 INFO: [Land   ] Jacksonville University, FL
02:09:37 INFO: [Land   ] I-295 Bridge, St Johns River, FL
02:09:38 INFO: [Land   ] Red Bay Point, St Johns River, FL
02:09:40 INFO: [Land   ] Racy Point, St Johns River, FL
02:09:45 INFO: [Land   ] Trident Pier, FL
02:09:47 INFO: [Land   ] Lake Worth Pier, FL
02:10:03 INFO: [Water  ] Vaca Key, FL
02:10:18 INFO: [Water  ] Key West, FL
02:10:20 INFO: [Land   ] Naples, FL
02:10:21 INFO: [Land   ] Fort Myers, FL
02:10:23 INFO: [Land   ] Port Manatee, FL
02:10:28 INFO: [Land   ] St Petersburg, FL
02:10:33 INFO: [Land   ] Old Port Tampa, FL
02:10:43 INFO: [Land   ] Apalachicola, FL
02:10:45 INFO: [Land   ] Panama City, FL
02:10:54 INFO: [Land   ] Panama City Beach, FL
02:10:55 INFO: [Land   ] Pensacola, FL
02:10:57 INFO: [Land   ] Tolomato River station
02:11:12 INFO: [Water  ] Duck Key, FL
02:11:14 INFO: [Land   ] Broad River Lower, FL
02:11:30 INFO: [Water  ] Cherry Grove Pier, N. Myrtle Beach, SC
02:11:47 INFO: [Water  ] Gulf of Mexico station
02:12:10 INFO: [Water  ] Shell Point
02:12:12 INFO: [Land   ] Taylor River, FL
02:12:34 INFO: [Water  ] Redfish Pass station
02:12:50 INFO: [Water  ] Little Rabbit Key, FL
02:13:06 INFO: [Water  ] Peterson Key, FL
02:13:07 INFO: [Land   ] Fort Myers station
02:13:09 INFO: [Land   ] Highway Creek, FL
02:13:25 INFO: [Water  ] CORMP ILM2, Wrightsville Beach Nearshore, NC
02:13:32 INFO: [Land   ] Clear Water Pass, FL 
02:13:33 INFO: [Land   ] Tarpon Bay station
02:13:35 INFO: [Land   ] Gunboat Island, FL
02:13:36 INFO: [Land   ] Cannon Bay, FL
02:13:52 INFO: [Water  ] Murray Key, FL
02:14:07 INFO: [Water  ] Blackwater Sound, FL
02:14:23 INFO: [Water  ] Butternut Key, FL
02:14:31 INFO: [Land   ] Shell Point station
02:14:48 INFO: [Water  ] Whipray Basin, FL
02:14:57 INFO: [Land   ] Apache Pier, Myrtle Beach, SC
02:14:59 INFO: [Land   ] Garfield Bight, FL
02:15:01 INFO: [Land   ] Lane River, FL 
02:15:16 INFO: [Water  ] Little Blackwater, FL
02:15:22 INFO: [Land   ] Little Madeira, FL
02:15:24 INFO: [Land   ] St Lucie Inlet station
02:15:26 INFO: [Land   ] White Water -West, FL
02:15:27 INFO: [Land   ] fau_lobo_1
02:15:43 INFO: [Water  ] CORMP ILM3, Wrightsville Beach Offshore, NC
02:15:44 INFO: [Land   ] Broad River, FL
02:15:46 INFO: [Land   ] Willy Willy, FL
02:15:47 INFO: [Land   ] Cane Patch, FL
02:15:54 INFO: [Land   ] Sebastian Inlet met station
02:16:09 INFO: [Water  ] CAROCOOPS SUN2, Sunset Nearshore, NC
02:16:11 INFO: [Land   ] Bing&#39;s Landing station
02:16:26 INFO: [Water  ] Bob Allen, FL
02:16:28 INFO: [Land   ] Trout Cove, FL
02:16:43 INFO: [Water  ] Johnson Key, FL
02:16:43 INFO: Finished processing [NECOFS_GOM3_WAVE]: http://crow.marine.usf.edu:8080/thredds/dodsC/WFS_SWAN_NF_model/USF_Ocean_Circulation_Group_West_Florida_Shelf_Daily_SWAN_Nowcast_Forecast_Wave_Model_Data_best.ncd

02:16:49 WARNING: /home/filipe/miniconda/envs/SECOORA/lib/python2.7/site-packages/numpy/core/_methods.py:59: RuntimeWarning: Mean of empty slice.
  warnings.warn("Mean of empty slice.", RuntimeWarning)

02:17:07 INFO: 77.31 minutes
02:17:07 INFO: EOF
