07:31:43 INFO: ************Saving data inside directory 2014-07-07*************
07:31:43 INFO: *********************** Run information ************************
07:31:43 INFO: Run date: 2015-06-22 22:31:43
07:31:43 INFO: Download start: 2014-06-30 12:00:00
07:31:43 INFO: Download stop: 2014-07-07 12:00:00
07:31:43 INFO: Bounding box: -87.40, 24.25,-74.70, 36.70
07:31:43 INFO: *********************** Software version ***********************
07:31:43 INFO: Iris version: 1.8.1
07:31:43 INFO: owslib version: 0.9.0
07:31:43 INFO: pyoos version: 0.6.2
07:31:50 INFO: ********************* Catalog information **********************
07:31:50 INFO: URL: http://www.ngdc.noaa.gov/geoportal/csw
07:31:50 INFO: CSW version: 2.0.2
07:31:50 INFO: Number of datasets available: 99
07:31:50 INFO: ***************************** CSW ******************************
07:31:50 INFO: USF FVCOM - Nowcast Aggregation
07:31:50 INFO: ROMS/TOMS 3.0 - New Floria Shelf Application
07:31:50 INFO: ROMS/TOMS 3.0 - South-Atlantic Bight and Gulf of Mexico
07:31:50 INFO: COAWST Forecast System : USGS : US East Coast and Gulf of Mexico (Experimental)
07:31:50 INFO: Directional wave and sea surface temperature measurements collected in situ by Datawell Mark 3 directional buoy located near MONTEREY CANYON OUTER, CA from 2013/07/11 17:00:00 to 2014/07/01 20:59:59.
07:31:50 INFO: Directional wave and sea surface temperature measurements collected in situ by Datawell Mark 3 directional buoy located near MONTEREY BAY WEST, CA from 2013/06/19 18:00:00 to 2014/07/01 14:59:59.
07:31:50 INFO: Directional wave and sea surface temperature measurements collected in situ by Datawell Mark 3 directional buoy located near MONTEREY BAY WEST, CA from 2014/07/01 19:00:00 to 2014/10/04 23:59:59.
07:31:50 INFO: Directional wave and sea surface temperature measurements collected in situ by Datawell Mark 3 directional buoy located near SAN FRANCISCO BAR, CA from 2013/06/19 22:00:00 to 2014/07/24 14:59:59.
07:31:50 INFO: Directional wave and sea surface temperature measurements collected in situ by Datawell Mark 3 directional buoy located near POINT REYES, CA from 2013/10/16 21:00:00 to 2014/09/05 11:59:59.
07:31:50 INFO: Directional wave and sea surface temperature measurements collected in situ by Datawell Mark 3 directional buoy located near HUMBOLDT BAY NORTH SPIT, CA from 2013/08/26 19:00:00 to 2014/07/24 03:59:59.
07:31:50 INFO: Directional wave and sea surface temperature measurements collected in situ by Datawell Mark 3 directional buoy located near UMPQUA OFFSHORE, OR from 2014/03/14 18:00:00 to 2015/05/21 16:59:59.
07:31:50 INFO: Directional wave and sea surface temperature measurements collected in situ by Datawell Mark 3 directional buoy located near DIABLO CANYON, CA from 2013/08/28 23:00:00 to 2014/10/29 16:59:59.
07:31:50 INFO: Directional wave and sea surface temperature measurements collected in situ by Datawell Mark 3 directional buoy located near CLATSOP SPIT, OR from 2013/07/18 20:00:00 to 2015/01/12 18:59:59.
07:31:50 INFO: Directional wave and sea surface temperature measurements collected in situ by Datawell Mark 3 directional buoy located near ASTORIA CANYON, OR from 2014/01/16 20:00:00 to 2014/09/29 22:59:59.
07:31:50 INFO: Directional wave and sea surface temperature measurements collected in situ by Datawell Mark 3 directional buoy located near GRAYS HARBOR, WA from 2013/10/13 19:00:00 to 2015/01/28 15:59:59.
07:31:50 INFO: Directional wave and sea surface temperature measurements collected in situ by Datawell Waverider buoys located near SAN FRANCISCO BAR, CA from 2007/07/25 to 2014/07/24.
07:31:50 INFO: Directional wave and sea surface temperature measurements collected in situ by Datawell Mark 3 directional buoy located near SANTA MONICA BAY, CA from 2013/12/18 21:00:00 to 2015/02/18 18:59:59.
07:31:50 INFO: Directional wave and sea surface temperature measurements collected in situ by Datawell Mark 3 directional buoy located near SANTA CRUZ BASIN, CA from 2013/07/09 15:00:00 to 2014/07/14 16:59:59.
07:31:50 INFO: Directional wave and sea surface temperature measurements collected in situ by Datawell Mark 3 directional buoy located near OCEAN STATION PAPA from 2012/10/04 21:00:00 to 2015/01/01 00:59:59.
07:31:50 INFO: Directional wave and sea surface temperature measurements collected in situ by Datawell Mark 3 directional buoy located near CAMP PENDLETON NEARSHORE, CA from 2014/04/24 22:00:00 to 2014/06/06 16:59:59.
07:31:50 INFO: Directional wave and sea surface temperature measurements collected in situ by Datawell Mark 3 directional buoy located near CAMP PENDLETON NEARSHORE, CA from 2014/06/16 21:00:00 to 2015/01/23 12:59:59.
07:31:50 INFO: Directional wave and sea surface temperature measurements collected in situ by Datawell Mark 3 directional buoy located near SAN NICOLAS ISLAND, CA from 2013/04/19 17:00:00 to 2014/06/08 21:59:59.
07:31:50 INFO: Directional wave and sea surface temperature measurements collected in situ by Datawell Mark 3 directional buoy located near TORREY PINES OUTER, CA from 2014/06/10 21:00:00 to 2014/06/12 15:59:59.
07:31:50 INFO: Directional wave and sea surface temperature measurements collected in situ by Datawell Mark 3 directional buoy located near SCRIPPS NEARSHORE, CA from 2013/07/12 20:00:00 to 2015/01/07 17:59:59.
07:31:50 INFO: Directional wave and sea surface temperature measurements collected in situ by Datawell Mark 3 directional buoy located near MISSION BAY OFFSHORE, CA from 2014/04/28 21:00:00 to 2014/06/24 09:59:59.
07:31:50 INFO: Directional wave and sea surface temperature measurements collected in situ by Datawell Waverider buoys located near OCEANSIDE OFFSHORE, CA from 1997/05/19 to 2015/03/04.
07:31:50 INFO: Directional wave and sea surface temperature measurements collected in situ by Datawell Mark 3 directional buoy located near POINT LOMA SOUTH, CA from 2013/08/12 20:00:00 to 2014/09/10 07:59:59.
07:31:50 INFO: Directional wave and sea surface temperature measurements collected in situ by Datawell Waverider buoys located near MOKAPU POINT, HI from 2000/08/09 to 2014/09/10.
07:31:50 INFO: Directional wave and sea surface temperature measurements collected in situ by Datawell Waverider buoys located near TORREY PINES OUTER, CA from 2001/01/30 to 2014/06/06.
07:31:50 INFO: ROMS ESPRESSO Real-Time Operational IS4DVAR Forecast System Version 2 (NEW) 2013-present FMRC History (Best)
07:31:50 INFO: Directional wave and sea surface temperature measurements collected in situ by Datawell Waverider buoys located near SANTA MONICA BAY, CA from 2000/03/16 to 2015/02/18.
07:31:50 INFO: Directional wave and sea surface temperature measurements collected in situ by Datawell Waverider buoys located near SAN NICOLAS ISLAND, CA from 1991/09/10 to 2014/06/08.
07:31:50 INFO: Directional wave and sea surface temperature measurements collected in situ by Datawell Waverider buoys located near UMPQUA OFFSHORE, OR from 2006/07/12 to 2015/05/21.
07:31:50 INFO: Directional wave and sea surface temperature measurements collected in situ by Datawell Mark 3 directional buoy located near FERNANDINA BEACH, FL from 2013/12/17 18:00:00 to 2015/01/29 16:59:59.
07:31:50 INFO: NDBC Standard Meteorological Buoy Data
07:31:50 INFO: Directional wave and sea surface temperature measurements collected in situ by Datawell Waverider buoys located near POINT REYES, CA from 1996/12/06 to 2015/05/29.
07:31:50 INFO: HYbrid Coordinate Ocean Model (HYCOM): Global
07:31:50 INFO: National Data Buoy Center SOS
07:31:50 INFO: G1SST, 1km blended SST
07:31:50 INFO: NOAA Coral Reef Watch Operational Twice-Weekly Near-Real-Time Global 50km Satellite Coral Bleaching Monitoring Products
07:31:50 INFO: Directional wave and sea surface temperature measurements collected in situ by Datawell Mark 3 directional buoy located near ST. PETERSBURG OFFSHORE, FL from 2013/12/03 19:00:00 to 2015/02/24 15:59:59.
07:31:50 INFO: Directional wave and sea surface temperature measurements collected in situ by Datawell Mark 3 directional buoy located near MASONBORO INLET, ILM2, NC from 2014/03/14 16:00:00 to 2015/01/06 13:59:59.where the water depth is approximately
07:31:50 INFO: Directional wave and sea surface temperature measurements collected in situ by Datawell Mark 3 directional buoy located near CAPE CANAVERAL NEARSHORE, FL from 2014/05/28 20:00:00 to 2015/06/05 12:59:59.
07:31:50 INFO: Directional wave and sea surface temperature measurements collected in situ by Datawell Mark 3 directional buoy located near FORT PIERCE, FL from 2013/12/05 17:00:00 to 2015/03/19 13:59:59.
07:31:50 INFO: Directional wave and sea surface temperature measurements collected in situ by Datawell Waverider buoys located near DUCK FRF 26m, NC from 2008/05/22 to 2015/05/06.
07:31:50 INFO: Directional wave and sea surface temperature measurements collected in situ by Datawell Mark 3 directional buoy located near CAPE CHARLES, VA from 2013/09/11 18:00:00 to 2015/02/18 11:59:59.
07:31:50 INFO: Directional wave and sea surface temperature measurements collected in situ by Datawell Waverider buoys located near CAPE CANAVERAL NEARSHORE, FL from 2006/09/07 to 2015/06/05.
07:31:50 INFO: Directional wave and sea surface temperature measurements collected in situ by Datawell Mark 3 directional buoy located near OREGON INLET, NC from 2013/07/17 17:00:00 to 2015/02/01 16:59:59.
07:31:50 INFO: Directional wave and sea surface temperature measurements collected in situ by Datawell Waverider buoys located near FERNANDINA BEACH, FL from 2006/02/09 to 2015/01/29.
07:31:50 INFO: Directional wave and sea surface temperature measurements collected in situ by Datawell Waverider buoys located near MASONBORO INLET, ILM2, NC from 2008/05/07 to 2015/01/06.
07:31:50 INFO: Directional wave and sea surface temperature measurements collected in situ by Datawell Waverider buoys located near ST. PETERSBURG OFFSHORE, FL from 2007/07/10 to 2015/02/24.
07:31:50 INFO: Directional wave and sea surface temperature measurements collected in situ by Datawell Waverider buoys located near OREGON INLET, NC from 2012/04/08 to 2015/02/01.
07:31:50 INFO: Directional wave and sea surface temperature measurements collected in situ by Datawell Waverider buoys located near FORT PIERCE, FL from 2006/09/29 to 2015/03/19.
07:31:50 INFO: Directional wave and sea surface temperature measurements collected in situ by Datawell Waverider buoys located near NEW RIVER INLET, NC from 2012/04/14 to 2014/07/11.
07:31:50 INFO: Directional wave and sea surface temperature measurements collected in situ by Datawell Mark 3 directional buoy located near NEW RIVER INLET, NC from 2014/03/09 19:00:00 to 2014/07/11 23:59:59.
07:31:50 INFO: carocoops.cap2.buoy
07:31:50 INFO: carocoops.cap2.buoy
07:31:50 INFO: carocoops.frp2.buoy
07:31:50 INFO: carocoops.frp2.buoy
07:31:50 INFO: carocoops.sun2.buoy
07:31:50 INFO: usf.c10.mcat
07:31:50 INFO: lbhmc.apachepier.pier
07:31:50 INFO: lbhmc.cherrygrove.pier
07:31:50 INFO: sccf.fortmyers.wq
07:31:50 INFO: sccf.gulfofmexico.wq
07:31:50 INFO: sccf.redfishpass.wq
07:31:50 INFO: sccf.shellpoint.wq
07:31:50 INFO: sccf.tarponbay.wq
07:31:50 INFO: usf.c21.weatherpak
07:31:50 INFO: usf.shp.ngwlms
07:31:50 INFO: enp.bdvf1.met
07:31:50 INFO: enp.bnkf1.met
07:31:50 INFO: enp.bobf1.met
07:31:50 INFO: enp.bwsf1.met
07:31:50 INFO: enp.canf1.met
07:31:50 INFO: enp.cnbf1.met
07:31:50 INFO: enp.cwaf1.met
07:31:50 INFO: enp.dkkf1.met
07:31:50 INFO: enp.gbif1.met
07:31:50 INFO: enp.gbtf1.met
07:31:50 INFO: enp.hcef1.met
07:31:50 INFO: enp.jkyf1.met
07:31:50 INFO: enp.lbrf1.met
07:31:50 INFO: enp.lbsf1.met
07:31:50 INFO: enp.lmdf1.met
07:31:50 INFO: enp.lrif1.met
07:31:50 INFO: enp.lrkf1.met
07:31:50 INFO: enp.mukf1.met
07:31:50 INFO: enp.pkyf1.met
07:31:50 INFO: enp.tcvf1.met
07:31:50 INFO: enp.trrf1.met
07:31:50 INFO: enp.wiwf1.met
07:31:50 INFO: enp.wrbf1.met
07:31:50 INFO: enp.wwef1.met
07:31:50 INFO: fau.lobo.1
07:31:50 INFO: fldep.bingslanding.
07:31:50 INFO: fldep.stlucieinlet.
07:31:50 INFO: fldep.tolomatoriver.
07:31:50 INFO: lbhmc.2ndave.pier
07:31:50 INFO: ***************************** DAP ******************************
07:31:50 INFO: http://crow.marine.usf.edu:8080/thredds/dodsC/FVCOM-Nowcast-Agg.nc.html
07:31:50 INFO: http://crow.marine.usf.edu:8080/thredds/dodsC/WFS_ROMS_NF_model/USF_Ocean_Circulation_Group_West_Florida_Shelf_Daily_ROMS_Nowcast_Forecast_Model_Data_best.ncd.html
07:31:50 INFO: http://geoport.whoi.edu/thredds/dodsC/coawst_4/use/fmrc/coawst_4_use_best.ncd.html
07:31:50 INFO: http://omgsrv1.meas.ncsu.edu:8080/thredds/dodsC/fmrc/sabgom/SABGOM_Forecast_Model_Run_Collection_best.ncd.html
07:31:50 INFO: http://oos.soest.hawaii.edu/thredds/dodsC/hioos/satellite/dhw.html
07:31:50 INFO: http://oos.soest.hawaii.edu/thredds/dodsC/pacioos/hycom/global.html
07:31:50 INFO: http://tds.marine.rutgers.edu/thredds/dodsC/roms/espresso/2013_da/his_Best/ESPRESSO_Real-Time_v2_History_Best_Available_best.ncd.html
07:31:50 INFO: http://tds.secoora.org/thredds/dodsC/carocoops.cap2.buoy.nc.html
07:31:50 INFO: http://tds.secoora.org/thredds/dodsC/carocoops.cap2.buoy_archive.nc.html
07:31:50 INFO: http://tds.secoora.org/thredds/dodsC/carocoops.frp2.buoy.nc.html
07:31:50 INFO: http://tds.secoora.org/thredds/dodsC/carocoops.frp2.buoy_archive.nc.html
07:31:50 INFO: http://tds.secoora.org/thredds/dodsC/carocoops.sun2.buoy_archive.nc.html
07:31:50 INFO: http://tds.secoora.org/thredds/dodsC/enp.bdvf1.met.nc.html
07:31:50 INFO: http://tds.secoora.org/thredds/dodsC/enp.bnkf1.met.nc.html
07:31:50 INFO: http://tds.secoora.org/thredds/dodsC/enp.bobf1.met.nc.html
07:31:50 INFO: http://tds.secoora.org/thredds/dodsC/enp.bwsf1.met.nc.html
07:31:50 INFO: http://tds.secoora.org/thredds/dodsC/enp.canf1.met.nc.html
07:31:50 INFO: http://tds.secoora.org/thredds/dodsC/enp.cnbf1.met.nc.html
07:31:50 INFO: http://tds.secoora.org/thredds/dodsC/enp.cwaf1.met.nc.html
07:31:50 INFO: http://tds.secoora.org/thredds/dodsC/enp.dkkf1.met.nc.html
07:31:50 INFO: http://tds.secoora.org/thredds/dodsC/enp.gbif1.met.nc.html
07:31:50 INFO: http://tds.secoora.org/thredds/dodsC/enp.gbtf1.met.nc.html
07:31:50 INFO: http://tds.secoora.org/thredds/dodsC/enp.hcef1.met.nc.html
07:31:50 INFO: http://tds.secoora.org/thredds/dodsC/enp.jkyf1.met.nc.html
07:31:50 INFO: http://tds.secoora.org/thredds/dodsC/enp.lbrf1.met.nc.html
07:31:50 INFO: http://tds.secoora.org/thredds/dodsC/enp.lbsf1.met.nc.html
07:31:50 INFO: http://tds.secoora.org/thredds/dodsC/enp.lmdf1.met.nc.html
07:31:50 INFO: http://tds.secoora.org/thredds/dodsC/enp.lrif1.met.nc.html
07:31:50 INFO: http://tds.secoora.org/thredds/dodsC/enp.lrkf1.met.nc.html
07:31:50 INFO: http://tds.secoora.org/thredds/dodsC/enp.mukf1.met.nc.html
07:31:50 INFO: http://tds.secoora.org/thredds/dodsC/enp.pkyf1.met.nc.html
07:31:50 INFO: http://tds.secoora.org/thredds/dodsC/enp.tcvf1.met.nc.html
07:31:50 INFO: http://tds.secoora.org/thredds/dodsC/enp.trrf1.met.nc.html
07:31:50 INFO: http://tds.secoora.org/thredds/dodsC/enp.wiwf1.met.nc.html
07:31:50 INFO: http://tds.secoora.org/thredds/dodsC/enp.wrbf1.met.nc.html
07:31:50 INFO: http://tds.secoora.org/thredds/dodsC/enp.wwef1.met.nc.html
07:31:50 INFO: http://tds.secoora.org/thredds/dodsC/fau.lobo.1.nc.html
07:31:50 INFO: http://tds.secoora.org/thredds/dodsC/fldep.bingslanding..nc.html
07:31:50 INFO: http://tds.secoora.org/thredds/dodsC/fldep.stlucieinlet..nc.html
07:31:50 INFO: http://tds.secoora.org/thredds/dodsC/fldep.tolomatoriver..nc.html
07:31:50 INFO: http://tds.secoora.org/thredds/dodsC/lbhmc.2ndave.pier.nc.html
07:31:50 INFO: http://tds.secoora.org/thredds/dodsC/lbhmc.apachepier.pier.nc.html
07:31:50 INFO: http://tds.secoora.org/thredds/dodsC/lbhmc.cherrygrove.pier.nc.html
07:31:50 INFO: http://tds.secoora.org/thredds/dodsC/sccf.fortmyers.wq.nc.html
07:31:50 INFO: http://tds.secoora.org/thredds/dodsC/sccf.gulfofmexico.wq.nc.html
07:31:50 INFO: http://tds.secoora.org/thredds/dodsC/sccf.redfishpass.wq.nc.html
07:31:50 INFO: http://tds.secoora.org/thredds/dodsC/sccf.shellpoint.wq.nc.html
07:31:50 INFO: http://tds.secoora.org/thredds/dodsC/sccf.tarponbay.wq.nc.html
07:31:50 INFO: http://tds.secoora.org/thredds/dodsC/usf.c10.mcat.nc.html
07:31:50 INFO: http://tds.secoora.org/thredds/dodsC/usf.c21.weatherpak.nc.html
07:31:50 INFO: http://tds.secoora.org/thredds/dodsC/usf.shp.ngwlms.nc.html
07:31:50 INFO: http://thredds.cdip.ucsd.edu/thredds/dodsC/cdip/archive/028p1/028p1_d16.nc.html
07:31:50 INFO: http://thredds.cdip.ucsd.edu/thredds/dodsC/cdip/archive/028p1/028p1_historic.nc.html
07:31:50 INFO: http://thredds.cdip.ucsd.edu/thredds/dodsC/cdip/archive/029p1/029p1_d19.nc.html
07:31:50 INFO: http://thredds.cdip.ucsd.edu/thredds/dodsC/cdip/archive/029p1/029p1_historic.nc.html
07:31:50 INFO: http://thredds.cdip.ucsd.edu/thredds/dodsC/cdip/archive/036p1/036p1_d40.nc.html
07:31:50 INFO: http://thredds.cdip.ucsd.edu/thredds/dodsC/cdip/archive/043p1/043p1_d16.nc.html
07:31:50 INFO: http://thredds.cdip.ucsd.edu/thredds/dodsC/cdip/archive/043p1/043p1_d17.nc.html
07:31:50 INFO: http://thredds.cdip.ucsd.edu/thredds/dodsC/cdip/archive/045p1/045p1_historic.nc.html
07:31:50 INFO: http://thredds.cdip.ucsd.edu/thredds/dodsC/cdip/archive/067p1/067p1_d22.nc.html
07:31:50 INFO: http://thredds.cdip.ucsd.edu/thredds/dodsC/cdip/archive/067p1/067p1_historic.nc.html
07:31:50 INFO: http://thredds.cdip.ucsd.edu/thredds/dodsC/cdip/archive/076p1/076p1_d27.nc.html
07:31:50 INFO: http://thredds.cdip.ucsd.edu/thredds/dodsC/cdip/archive/093p1/093p1_d40.nc.html
07:31:50 INFO: http://thredds.cdip.ucsd.edu/thredds/dodsC/cdip/archive/098p1/098p1_historic.nc.html
07:31:50 INFO: http://thredds.cdip.ucsd.edu/thredds/dodsC/cdip/archive/100p1/100p1_d13.nc.html
07:31:50 INFO: http://thredds.cdip.ucsd.edu/thredds/dodsC/cdip/archive/100p1/100p1_historic.nc.html
07:31:50 INFO: http://thredds.cdip.ucsd.edu/thredds/dodsC/cdip/archive/132p1/132p1_d11.nc.html
07:31:50 INFO: http://thredds.cdip.ucsd.edu/thredds/dodsC/cdip/archive/132p1/132p1_historic.nc.html
07:31:50 INFO: http://thredds.cdip.ucsd.edu/thredds/dodsC/cdip/archive/134p1/134p1_d09.nc.html
07:31:50 INFO: http://thredds.cdip.ucsd.edu/thredds/dodsC/cdip/archive/134p1/134p1_historic.nc.html
07:31:50 INFO: http://thredds.cdip.ucsd.edu/thredds/dodsC/cdip/archive/139p1/139p1_d08.nc.html
07:31:50 INFO: http://thredds.cdip.ucsd.edu/thredds/dodsC/cdip/archive/139p1/139p1_historic.nc.html
07:31:50 INFO: http://thredds.cdip.ucsd.edu/thredds/dodsC/cdip/archive/142p1/142p1_d14.nc.html
07:31:50 INFO: http://thredds.cdip.ucsd.edu/thredds/dodsC/cdip/archive/142p1/142p1_historic.nc.html
07:31:50 INFO: http://thredds.cdip.ucsd.edu/thredds/dodsC/cdip/archive/143p1/143p1_d11.nc.html
07:31:50 INFO: http://thredds.cdip.ucsd.edu/thredds/dodsC/cdip/archive/143p1/143p1_historic.nc.html
07:31:50 INFO: http://thredds.cdip.ucsd.edu/thredds/dodsC/cdip/archive/144p1/144p1_d07.nc.html
07:31:50 INFO: http://thredds.cdip.ucsd.edu/thredds/dodsC/cdip/archive/144p1/144p1_historic.nc.html
07:31:50 INFO: http://thredds.cdip.ucsd.edu/thredds/dodsC/cdip/archive/150p1/150p1_d07.nc.html
07:31:50 INFO: http://thredds.cdip.ucsd.edu/thredds/dodsC/cdip/archive/150p1/150p1_historic.nc.html
07:31:50 INFO: http://thredds.cdip.ucsd.edu/thredds/dodsC/cdip/archive/156p1/156p1_d07.nc.html
07:31:50 INFO: http://thredds.cdip.ucsd.edu/thredds/dodsC/cdip/archive/162p1/162p1_d04.nc.html
07:31:50 INFO: http://thredds.cdip.ucsd.edu/thredds/dodsC/cdip/archive/166p1/166p1_d02.nc.html
07:31:50 INFO: http://thredds.cdip.ucsd.edu/thredds/dodsC/cdip/archive/168p1/168p1_d05.nc.html
07:31:50 INFO: http://thredds.cdip.ucsd.edu/thredds/dodsC/cdip/archive/179p1/179p1_d04.nc.html
07:31:50 INFO: http://thredds.cdip.ucsd.edu/thredds/dodsC/cdip/archive/185p1/185p1_d02.nc.html
07:31:50 INFO: http://thredds.cdip.ucsd.edu/thredds/dodsC/cdip/archive/185p1/185p1_d03.nc.html
07:31:50 INFO: http://thredds.cdip.ucsd.edu/thredds/dodsC/cdip/archive/186p1/186p1_d03.nc.html
07:31:50 INFO: http://thredds.cdip.ucsd.edu/thredds/dodsC/cdip/archive/190p1/190p1_d02.nc.html
07:31:50 INFO: http://thredds.cdip.ucsd.edu/thredds/dodsC/cdip/archive/190p1/190p1_historic.nc.html
07:31:50 INFO: http://thredds.cdip.ucsd.edu/thredds/dodsC/cdip/archive/191p1/191p1_d12.nc.html
07:31:50 INFO: http://thredds.cdip.ucsd.edu/thredds/dodsC/cdip/archive/192p1/192p1_d02.nc.html
07:31:50 INFO: http://thredds.cdip.ucsd.edu/thredds/dodsC/cdip/archive/192p1/192p1_historic.nc.html
07:31:50 INFO: http://thredds.cdip.ucsd.edu/thredds/dodsC/cdip/archive/201p1/201p1_d02.nc.html
07:31:50 INFO: http://thredds.cdip.ucsd.edu/thredds/dodsC/cdip/archive/203p1/203p1_d01.nc.html
07:31:50 INFO: http://thredds.cdip.ucsd.edu/thredds/dodsC/cdip/archive/430p1/430p1_historic.nc.html
07:31:50 INFO: ***************************** SOS ******************************
07:31:50 INFO: http://sdf.ndbc.noaa.gov/sos/server.php?service=SOS&request=GetCapabilities&acceptVersions=1.0.0
07:31:50 INFO: http://tds.secoora.org/thredds/sos/carocoops.cap2.buoy.nc?service=SOS&version=1.0.0&request=GetCapabilities
07:31:50 INFO: http://tds.secoora.org/thredds/sos/carocoops.cap2.buoy_archive.nc?service=SOS&version=1.0.0&request=GetCapabilities
07:31:50 INFO: http://tds.secoora.org/thredds/sos/carocoops.frp2.buoy.nc?service=SOS&version=1.0.0&request=GetCapabilities
07:31:50 INFO: http://tds.secoora.org/thredds/sos/carocoops.frp2.buoy_archive.nc?service=SOS&version=1.0.0&request=GetCapabilities
07:31:50 INFO: http://tds.secoora.org/thredds/sos/carocoops.sun2.buoy_archive.nc?service=SOS&version=1.0.0&request=GetCapabilities
07:31:50 INFO: http://tds.secoora.org/thredds/sos/enp.bdvf1.met.nc?service=SOS&version=1.0.0&request=GetCapabilities
07:31:50 INFO: http://tds.secoora.org/thredds/sos/enp.bnkf1.met.nc?service=SOS&version=1.0.0&request=GetCapabilities
07:31:50 INFO: http://tds.secoora.org/thredds/sos/enp.bobf1.met.nc?service=SOS&version=1.0.0&request=GetCapabilities
07:31:50 INFO: http://tds.secoora.org/thredds/sos/enp.bwsf1.met.nc?service=SOS&version=1.0.0&request=GetCapabilities
07:31:50 INFO: http://tds.secoora.org/thredds/sos/enp.canf1.met.nc?service=SOS&version=1.0.0&request=GetCapabilities
07:31:50 INFO: http://tds.secoora.org/thredds/sos/enp.cnbf1.met.nc?service=SOS&version=1.0.0&request=GetCapabilities
07:31:50 INFO: http://tds.secoora.org/thredds/sos/enp.cwaf1.met.nc?service=SOS&version=1.0.0&request=GetCapabilities
07:31:50 INFO: http://tds.secoora.org/thredds/sos/enp.dkkf1.met.nc?service=SOS&version=1.0.0&request=GetCapabilities
07:31:50 INFO: http://tds.secoora.org/thredds/sos/enp.gbif1.met.nc?service=SOS&version=1.0.0&request=GetCapabilities
07:31:50 INFO: http://tds.secoora.org/thredds/sos/enp.gbtf1.met.nc?service=SOS&version=1.0.0&request=GetCapabilities
07:31:50 INFO: http://tds.secoora.org/thredds/sos/enp.hcef1.met.nc?service=SOS&version=1.0.0&request=GetCapabilities
07:31:50 INFO: http://tds.secoora.org/thredds/sos/enp.jkyf1.met.nc?service=SOS&version=1.0.0&request=GetCapabilities
07:31:50 INFO: http://tds.secoora.org/thredds/sos/enp.lbrf1.met.nc?service=SOS&version=1.0.0&request=GetCapabilities
07:31:50 INFO: http://tds.secoora.org/thredds/sos/enp.lbsf1.met.nc?service=SOS&version=1.0.0&request=GetCapabilities
07:31:50 INFO: http://tds.secoora.org/thredds/sos/enp.lmdf1.met.nc?service=SOS&version=1.0.0&request=GetCapabilities
07:31:50 INFO: http://tds.secoora.org/thredds/sos/enp.lrif1.met.nc?service=SOS&version=1.0.0&request=GetCapabilities
07:31:50 INFO: http://tds.secoora.org/thredds/sos/enp.lrkf1.met.nc?service=SOS&version=1.0.0&request=GetCapabilities
07:31:50 INFO: http://tds.secoora.org/thredds/sos/enp.mukf1.met.nc?service=SOS&version=1.0.0&request=GetCapabilities
07:31:50 INFO: http://tds.secoora.org/thredds/sos/enp.pkyf1.met.nc?service=SOS&version=1.0.0&request=GetCapabilities
07:31:50 INFO: http://tds.secoora.org/thredds/sos/enp.tcvf1.met.nc?service=SOS&version=1.0.0&request=GetCapabilities
07:31:50 INFO: http://tds.secoora.org/thredds/sos/enp.trrf1.met.nc?service=SOS&version=1.0.0&request=GetCapabilities
07:31:50 INFO: http://tds.secoora.org/thredds/sos/enp.wiwf1.met.nc?service=SOS&version=1.0.0&request=GetCapabilities
07:31:50 INFO: http://tds.secoora.org/thredds/sos/enp.wrbf1.met.nc?service=SOS&version=1.0.0&request=GetCapabilities
07:31:50 INFO: http://tds.secoora.org/thredds/sos/enp.wwef1.met.nc?service=SOS&version=1.0.0&request=GetCapabilities
07:31:50 INFO: http://tds.secoora.org/thredds/sos/fau.lobo.1.nc?service=SOS&version=1.0.0&request=GetCapabilities
07:31:50 INFO: http://tds.secoora.org/thredds/sos/fldep.bingslanding..nc?service=SOS&version=1.0.0&request=GetCapabilities
07:31:50 INFO: http://tds.secoora.org/thredds/sos/fldep.stlucieinlet..nc?service=SOS&version=1.0.0&request=GetCapabilities
07:31:50 INFO: http://tds.secoora.org/thredds/sos/fldep.tolomatoriver..nc?service=SOS&version=1.0.0&request=GetCapabilities
07:31:50 INFO: http://tds.secoora.org/thredds/sos/lbhmc.2ndave.pier.nc?service=SOS&version=1.0.0&request=GetCapabilities
07:31:50 INFO: http://tds.secoora.org/thredds/sos/lbhmc.apachepier.pier.nc?service=SOS&version=1.0.0&request=GetCapabilities
07:31:50 INFO: http://tds.secoora.org/thredds/sos/lbhmc.cherrygrove.pier.nc?service=SOS&version=1.0.0&request=GetCapabilities
07:31:50 INFO: http://tds.secoora.org/thredds/sos/sccf.fortmyers.wq.nc?service=SOS&version=1.0.0&request=GetCapabilities
07:31:50 INFO: http://tds.secoora.org/thredds/sos/sccf.gulfofmexico.wq.nc?service=SOS&version=1.0.0&request=GetCapabilities
07:31:50 INFO: http://tds.secoora.org/thredds/sos/sccf.redfishpass.wq.nc?service=SOS&version=1.0.0&request=GetCapabilities
07:31:50 INFO: http://tds.secoora.org/thredds/sos/sccf.shellpoint.wq.nc?service=SOS&version=1.0.0&request=GetCapabilities
07:31:50 INFO: http://tds.secoora.org/thredds/sos/sccf.tarponbay.wq.nc?service=SOS&version=1.0.0&request=GetCapabilities
07:31:50 INFO: http://tds.secoora.org/thredds/sos/usf.c10.mcat.nc?service=SOS&version=1.0.0&request=GetCapabilities
07:31:50 INFO: http://tds.secoora.org/thredds/sos/usf.c21.weatherpak.nc?service=SOS&version=1.0.0&request=GetCapabilities
07:31:50 INFO: http://tds.secoora.org/thredds/sos/usf.shp.ngwlms.nc?service=SOS&version=1.0.0&request=GetCapabilities
07:31:50 INFO: http://thredds.cdip.ucsd.edu/thredds/sos/cdip/archive/028p1/028p1_d16.nc?service=SOS&version=1.0.0&request=GetCapabilities
07:31:50 INFO: http://thredds.cdip.ucsd.edu/thredds/sos/cdip/archive/028p1/028p1_historic.nc?service=SOS&version=1.0.0&request=GetCapabilities
07:31:50 INFO: http://thredds.cdip.ucsd.edu/thredds/sos/cdip/archive/029p1/029p1_d19.nc?service=SOS&version=1.0.0&request=GetCapabilities
07:31:50 INFO: http://thredds.cdip.ucsd.edu/thredds/sos/cdip/archive/029p1/029p1_historic.nc?service=SOS&version=1.0.0&request=GetCapabilities
07:31:50 INFO: http://thredds.cdip.ucsd.edu/thredds/sos/cdip/archive/036p1/036p1_d40.nc?service=SOS&version=1.0.0&request=GetCapabilities
07:31:50 INFO: http://thredds.cdip.ucsd.edu/thredds/sos/cdip/archive/043p1/043p1_d16.nc?service=SOS&version=1.0.0&request=GetCapabilities
07:31:50 INFO: http://thredds.cdip.ucsd.edu/thredds/sos/cdip/archive/043p1/043p1_d17.nc?service=SOS&version=1.0.0&request=GetCapabilities
07:31:50 INFO: http://thredds.cdip.ucsd.edu/thredds/sos/cdip/archive/045p1/045p1_historic.nc?service=SOS&version=1.0.0&request=GetCapabilities
07:31:50 INFO: http://thredds.cdip.ucsd.edu/thredds/sos/cdip/archive/067p1/067p1_d22.nc?service=SOS&version=1.0.0&request=GetCapabilities
07:31:50 INFO: http://thredds.cdip.ucsd.edu/thredds/sos/cdip/archive/067p1/067p1_historic.nc?service=SOS&version=1.0.0&request=GetCapabilities
07:31:50 INFO: http://thredds.cdip.ucsd.edu/thredds/sos/cdip/archive/076p1/076p1_d27.nc?service=SOS&version=1.0.0&request=GetCapabilities
07:31:50 INFO: http://thredds.cdip.ucsd.edu/thredds/sos/cdip/archive/093p1/093p1_d40.nc?service=SOS&version=1.0.0&request=GetCapabilities
07:31:50 INFO: http://thredds.cdip.ucsd.edu/thredds/sos/cdip/archive/098p1/098p1_historic.nc?service=SOS&version=1.0.0&request=GetCapabilities
07:31:50 INFO: http://thredds.cdip.ucsd.edu/thredds/sos/cdip/archive/100p1/100p1_d13.nc?service=SOS&version=1.0.0&request=GetCapabilities
07:31:50 INFO: http://thredds.cdip.ucsd.edu/thredds/sos/cdip/archive/100p1/100p1_historic.nc?service=SOS&version=1.0.0&request=GetCapabilities
07:31:50 INFO: http://thredds.cdip.ucsd.edu/thredds/sos/cdip/archive/132p1/132p1_d11.nc?service=SOS&version=1.0.0&request=GetCapabilities
07:31:50 INFO: http://thredds.cdip.ucsd.edu/thredds/sos/cdip/archive/132p1/132p1_historic.nc?service=SOS&version=1.0.0&request=GetCapabilities
07:31:50 INFO: http://thredds.cdip.ucsd.edu/thredds/sos/cdip/archive/134p1/134p1_d09.nc?service=SOS&version=1.0.0&request=GetCapabilities
07:31:50 INFO: http://thredds.cdip.ucsd.edu/thredds/sos/cdip/archive/134p1/134p1_historic.nc?service=SOS&version=1.0.0&request=GetCapabilities
07:31:50 INFO: http://thredds.cdip.ucsd.edu/thredds/sos/cdip/archive/139p1/139p1_d08.nc?service=SOS&version=1.0.0&request=GetCapabilities
07:31:50 INFO: http://thredds.cdip.ucsd.edu/thredds/sos/cdip/archive/139p1/139p1_historic.nc?service=SOS&version=1.0.0&request=GetCapabilities
07:31:50 INFO: http://thredds.cdip.ucsd.edu/thredds/sos/cdip/archive/142p1/142p1_d14.nc?service=SOS&version=1.0.0&request=GetCapabilities
07:31:50 INFO: http://thredds.cdip.ucsd.edu/thredds/sos/cdip/archive/142p1/142p1_historic.nc?service=SOS&version=1.0.0&request=GetCapabilities
07:31:50 INFO: http://thredds.cdip.ucsd.edu/thredds/sos/cdip/archive/143p1/143p1_d11.nc?service=SOS&version=1.0.0&request=GetCapabilities
07:31:50 INFO: http://thredds.cdip.ucsd.edu/thredds/sos/cdip/archive/143p1/143p1_historic.nc?service=SOS&version=1.0.0&request=GetCapabilities
07:31:50 INFO: http://thredds.cdip.ucsd.edu/thredds/sos/cdip/archive/144p1/144p1_d07.nc?service=SOS&version=1.0.0&request=GetCapabilities
07:31:50 INFO: http://thredds.cdip.ucsd.edu/thredds/sos/cdip/archive/144p1/144p1_historic.nc?service=SOS&version=1.0.0&request=GetCapabilities
07:31:50 INFO: http://thredds.cdip.ucsd.edu/thredds/sos/cdip/archive/150p1/150p1_d07.nc?service=SOS&version=1.0.0&request=GetCapabilities
07:31:50 INFO: http://thredds.cdip.ucsd.edu/thredds/sos/cdip/archive/150p1/150p1_historic.nc?service=SOS&version=1.0.0&request=GetCapabilities
07:31:50 INFO: http://thredds.cdip.ucsd.edu/thredds/sos/cdip/archive/156p1/156p1_d07.nc?service=SOS&version=1.0.0&request=GetCapabilities
07:31:50 INFO: http://thredds.cdip.ucsd.edu/thredds/sos/cdip/archive/162p1/162p1_d04.nc?service=SOS&version=1.0.0&request=GetCapabilities
07:31:50 INFO: http://thredds.cdip.ucsd.edu/thredds/sos/cdip/archive/166p1/166p1_d02.nc?service=SOS&version=1.0.0&request=GetCapabilities
07:31:50 INFO: http://thredds.cdip.ucsd.edu/thredds/sos/cdip/archive/168p1/168p1_d05.nc?service=SOS&version=1.0.0&request=GetCapabilities
07:31:50 INFO: http://thredds.cdip.ucsd.edu/thredds/sos/cdip/archive/179p1/179p1_d04.nc?service=SOS&version=1.0.0&request=GetCapabilities
07:31:50 INFO: http://thredds.cdip.ucsd.edu/thredds/sos/cdip/archive/185p1/185p1_d02.nc?service=SOS&version=1.0.0&request=GetCapabilities
07:31:50 INFO: http://thredds.cdip.ucsd.edu/thredds/sos/cdip/archive/185p1/185p1_d03.nc?service=SOS&version=1.0.0&request=GetCapabilities
07:31:50 INFO: http://thredds.cdip.ucsd.edu/thredds/sos/cdip/archive/186p1/186p1_d03.nc?service=SOS&version=1.0.0&request=GetCapabilities
07:31:50 INFO: http://thredds.cdip.ucsd.edu/thredds/sos/cdip/archive/190p1/190p1_d02.nc?service=SOS&version=1.0.0&request=GetCapabilities
07:31:50 INFO: http://thredds.cdip.ucsd.edu/thredds/sos/cdip/archive/190p1/190p1_historic.nc?service=SOS&version=1.0.0&request=GetCapabilities
07:31:50 INFO: http://thredds.cdip.ucsd.edu/thredds/sos/cdip/archive/191p1/191p1_d12.nc?service=SOS&version=1.0.0&request=GetCapabilities
07:31:50 INFO: http://thredds.cdip.ucsd.edu/thredds/sos/cdip/archive/192p1/192p1_d02.nc?service=SOS&version=1.0.0&request=GetCapabilities
07:31:50 INFO: http://thredds.cdip.ucsd.edu/thredds/sos/cdip/archive/192p1/192p1_historic.nc?service=SOS&version=1.0.0&request=GetCapabilities
07:31:50 INFO: http://thredds.cdip.ucsd.edu/thredds/sos/cdip/archive/201p1/201p1_d02.nc?service=SOS&version=1.0.0&request=GetCapabilities
07:31:50 INFO: http://thredds.cdip.ucsd.edu/thredds/sos/cdip/archive/203p1/203p1_d01.nc?service=SOS&version=1.0.0&request=GetCapabilities
07:31:50 INFO: http://thredds.cdip.ucsd.edu/thredds/sos/cdip/archive/430p1/430p1_historic.nc?service=SOS&version=1.0.0&request=GetCapabilities
07:31:50 WARNING: USEAST not in the NGDC csw
07:31:50 WARNING: USF_SWAN not in the NGDC csw
07:32:06 WARNING: Cannot get cube for: http://129.252.139.124/thredds/dodsC/usf.nfb.ngwlms.nc
Cannot find ['sea_water_temperature', 'sea_surface_temperature', 'sea_water_potential_temperature', 'equivalent_potential_temperature', 'sea_water_conservative_temperature', 'pseudo_equivalent_potential_temperature'] in http://129.252.139.124/thredds/dodsC/usf.nfb.ngwlms.nc.
07:32:13 WARNING: Cannot get cube for: http://129.252.139.124/thredds/dodsC/usf.tas.ngwlms.nc
Cannot find ['sea_water_temperature', 'sea_surface_temperature', 'sea_water_potential_temperature', 'equivalent_potential_temperature', 'sea_water_conservative_temperature', 'pseudo_equivalent_potential_temperature'] in http://129.252.139.124/thredds/dodsC/usf.tas.ngwlms.nc.
07:32:23 WARNING: Cannot get cube for: http://129.252.139.124/thredds/dodsC/usf.apk.ngwlms.nc
Cannot find ['sea_water_temperature', 'sea_surface_temperature', 'sea_water_potential_temperature', 'equivalent_potential_temperature', 'sea_water_conservative_temperature', 'pseudo_equivalent_potential_temperature'] in http://129.252.139.124/thredds/dodsC/usf.apk.ngwlms.nc.
07:32:28 WARNING: Cannot get cube for: http://129.252.139.124/thredds/dodsC/usf.c21.weatherpak.nc
Cannot find ['sea_water_temperature', 'sea_surface_temperature', 'sea_water_potential_temperature', 'equivalent_potential_temperature', 'sea_water_conservative_temperature', 'pseudo_equivalent_potential_temperature'] in http://129.252.139.124/thredds/dodsC/usf.c21.weatherpak.nc.
07:32:47 WARNING: Cannot get cube for: http://129.252.139.124/thredds/dodsC/usf.bcp.ngwlms.nc
Cannot find ['sea_water_temperature', 'sea_surface_temperature', 'sea_water_potential_temperature', 'equivalent_potential_temperature', 'sea_water_conservative_temperature', 'pseudo_equivalent_potential_temperature'] in http://129.252.139.124/thredds/dodsC/usf.bcp.ngwlms.nc.
07:32:55 WARNING: Cannot get cube for: http://129.252.139.124/thredds/dodsC/usf.fhp.ngwlms.nc
Cannot find ['sea_water_temperature', 'sea_surface_temperature', 'sea_water_potential_temperature', 'equivalent_potential_temperature', 'sea_water_conservative_temperature', 'pseudo_equivalent_potential_temperature'] in http://129.252.139.124/thredds/dodsC/usf.fhp.ngwlms.nc.
07:33:01 WARNING: Cannot get cube for: http://129.252.139.124/thredds/dodsC/usf.c10.mcat.nc
istart must be different from istop! Got istart 48233 and  istop 48233
07:33:18 WARNING: Cannot get cube for: http://129.252.139.124/thredds/dodsC/c10_salinity_water_temp.nc
Cannot find ['sea_water_temperature', 'sea_surface_temperature', 'sea_water_potential_temperature', 'equivalent_potential_temperature', 'sea_water_conservative_temperature', 'pseudo_equivalent_potential_temperature'] in http://129.252.139.124/thredds/dodsC/c10_salinity_water_temp.nc.
07:33:29 WARNING: Cannot get cube for: http://129.252.139.124/thredds/dodsC/QC_C10_Temp_full.nc
Cannot find ['sea_water_temperature', 'sea_surface_temperature', 'sea_water_potential_temperature', 'equivalent_potential_temperature', 'sea_water_conservative_temperature', 'pseudo_equivalent_potential_temperature'] in http://129.252.139.124/thredds/dodsC/QC_C10_Temp_full.nc.
07:33:39 WARNING: Cannot get cube for: http://129.252.139.124/thredds/dodsC/QC_C10_Sal_full.nc
Cannot find ['sea_water_temperature', 'sea_surface_temperature', 'sea_water_potential_temperature', 'equivalent_potential_temperature', 'sea_water_conservative_temperature', 'pseudo_equivalent_potential_temperature'] in http://129.252.139.124/thredds/dodsC/QC_C10_Sal_full.nc.
07:33:44 WARNING: Cannot get cube for: http://129.252.139.124/thredds/dodsC/usf.c12.mcat.nc
istart must be different from istop! Got istart 18711 and  istop 18711
07:33:48 WARNING: Cannot get cube for: http://129.252.139.124/thredds/dodsC/usf.c13.mcat.nc
istart must be different from istop! Got istart 18099 and  istop 18099
07:33:53 WARNING: Cannot get cube for: http://129.252.139.124/thredds/dodsC/usf.c10.mcat_2011.nc
istart must be different from istop! Got istart 26303 and  istop 26303
07:33:57 WARNING: Cannot get cube for: http://129.252.139.124/thredds/dodsC/usf.c12.mcat_2011.nc
istart must be different from istop! Got istart 26303 and  istop 26303
07:34:03 WARNING: Cannot get cube for: http://129.252.139.124/thredds/dodsC/usf.c13.mcat_2011.nc
istart must be different from istop! Got istart 26303 and  istop 26303
07:34:56 WARNING: Cannot get cube for: http://129.252.139.124/thredds/dodsC/cormp.ilm1.buoy.nc
istart must be different from istop! Got istart 1443 and  istop 1443
07:35:05 WARNING: Cannot get cube for: http://129.252.139.124/thredds/dodsC/cormp.lej3.buoy.nc
istart must be different from istop! Got istart 91490 and  istop 91490
07:36:03 WARNING: Cannot get cube for: http://129.252.139.124/thredds/dodsC/fldep.poncedeleonsouth..nc
Cannot find ['sea_water_temperature', 'sea_surface_temperature', 'sea_water_potential_temperature', 'equivalent_potential_temperature', 'sea_water_conservative_temperature', 'pseudo_equivalent_potential_temperature'] in http://129.252.139.124/thredds/dodsC/fldep.poncedeleonsouth..nc.
07:36:19 WARNING: Cannot get cube for: http://129.252.139.124/thredds/dodsC/fldep.redbaypoint..nc
Cannot find ['sea_water_temperature', 'sea_surface_temperature', 'sea_water_potential_temperature', 'equivalent_potential_temperature', 'sea_water_conservative_temperature', 'pseudo_equivalent_potential_temperature'] in http://129.252.139.124/thredds/dodsC/fldep.redbaypoint..nc.
07:36:44 WARNING: Cannot get cube for: http://129.252.139.124/thredds/dodsC/fldep.naplesbay..nc
Cannot find ['sea_water_temperature', 'sea_surface_temperature', 'sea_water_potential_temperature', 'equivalent_potential_temperature', 'sea_water_conservative_temperature', 'pseudo_equivalent_potential_temperature'] in http://129.252.139.124/thredds/dodsC/fldep.naplesbay..nc.
07:36:55 WARNING: Cannot get cube for: http://129.252.139.124/thredds/dodsC/fldep.gordonriverinlet..nc
Cannot find ['sea_water_temperature', 'sea_surface_temperature', 'sea_water_potential_temperature', 'equivalent_potential_temperature', 'sea_water_conservative_temperature', 'pseudo_equivalent_potential_temperature'] in http://129.252.139.124/thredds/dodsC/fldep.gordonriverinlet..nc.
07:37:06 WARNING: Cannot get cube for: http://129.252.139.124/thredds/dodsC/fldep.melbourne..nc
Cannot find ['sea_water_temperature', 'sea_surface_temperature', 'sea_water_potential_temperature', 'equivalent_potential_temperature', 'sea_water_conservative_temperature', 'pseudo_equivalent_potential_temperature'] in http://129.252.139.124/thredds/dodsC/fldep.melbourne..nc.
07:37:15 WARNING: Cannot get cube for: http://129.252.139.124/thredds/dodsC/fldep.binneydock..nc
Cannot find ['sea_water_temperature', 'sea_surface_temperature', 'sea_water_potential_temperature', 'equivalent_potential_temperature', 'sea_water_conservative_temperature', 'pseudo_equivalent_potential_temperature'] in http://129.252.139.124/thredds/dodsC/fldep.binneydock..nc.
07:37:29 WARNING: Cannot get cube for: http://129.252.139.124/thredds/dodsC/fldep.verobeach..nc
Cannot find ['sea_water_temperature', 'sea_surface_temperature', 'sea_water_potential_temperature', 'equivalent_potential_temperature', 'sea_water_conservative_temperature', 'pseudo_equivalent_potential_temperature'] in http://129.252.139.124/thredds/dodsC/fldep.verobeach..nc.
07:39:17 WARNING: Cannot get cube for: http://129.252.139.124/thredds/dodsC/enp.ppta1.met.nc
Cannot find ['sea_water_temperature', 'sea_surface_temperature', 'sea_water_potential_temperature', 'equivalent_potential_temperature', 'sea_water_conservative_temperature', 'pseudo_equivalent_potential_temperature'] in http://129.252.139.124/thredds/dodsC/enp.ppta1.met.nc.
07:40:35 INFO: ********************* Collector offerings **********************
07:40:35 INFO: NOAA.NOS.CO-OPS SOS: 1046 offerings
07:40:39 INFO: SOS URL request: http://opendap.co-ops.nos.noaa.gov/ioos-dif-sos/SOS?eventTime=2014-06-30T12%3A00%3A00Z&service=SOS&offering=urn%3Aioos%3Anetwork%3ANOAA.NOS.CO-OPS%3AMetActive&request=GetObservation&version=1.0.0&responseFormat=text%2Fcsv&featureOfInterest=BBOX%3A-87.4%2C24.25%2C-74.7%2C36.7&observedProperty=sea_water_temperature
07:43:53 INFO: ************************* Observations *************************
07:43:53 INFO: **** Downloading to file 2014-07-07/2014-07-07-OBS_DATA.nc *****
07:45:42 WARNING: /home/filipe/miniconda/envs/SECOORA/lib/python2.7/site-packages/iris/fileformats/netcdf.py:1783: UserWarning: NetCDF default saving behaviour currently assigns the outermost dimensions to unlimited. This behaviour is to be deprecated, in favour of no automatic assignment. To switch to the new behaviour, set iris.FUTURE.netcdf_no_unlimited to True.
  warnings.warn(msg)

07:45:43 INFO: ********************* SECOORA Observations *********************
07:45:43 INFO:  Downloading to file 2014-07-07/2014-07-07-SECOORA_OBS_DATA.nc *
07:45:44 INFO: **************************** Models ****************************
07:45:44 INFO: 
[Reading url 1/98]: http://crow.marine.usf.edu:8080/thredds/dodsC/FVCOM-Nowcast-Agg.nc
07:50:46 WARNING: Cannot get cube for: http://crow.marine.usf.edu:8080/thredds/dodsC/FVCOM-Nowcast-Agg.nc
Timed out!
07:50:46 INFO: 
[Reading url 2/98]: http://crow.marine.usf.edu:8080/thredds/dodsC/WFS_ROMS_NF_model/USF_Ocean_Circulation_Group_West_Florida_Shelf_Daily_ROMS_Nowcast_Forecast_Model_Data_best.ncd
07:50:57 INFO: 
[Reading url 3/98]: http://geoport.whoi.edu/thredds/dodsC/coawst_4/use/fmrc/coawst_4_use_best.ncd
07:51:23 INFO: 
[Reading url 4/98]: http://omgarch1.meas.ncsu.edu:8080/thredds/dodsC/fmrc/sabgom/SABGOM_Forecast_Model_Run_Collection_best.ncd
07:51:45 INFO: 
[Reading url 5/98]: http://oos.soest.hawaii.edu/thredds/dodsC/hioos/satellite/dhw
07:51:49 WARNING: [Not model data]: http://oos.soest.hawaii.edu/thredds/dodsC/hioos/satellite/dhw
07:51:49 INFO: 
[Reading url 6/98]: http://oos.soest.hawaii.edu/thredds/dodsC/pacioos/hycom/global
07:51:53 INFO: 
[Reading url 7/98]: http://tds.marine.rutgers.edu/thredds/dodsC/roms/espresso/2013_da/his_Best/ESPRESSO_Real-Time_v2_History_Best_Available_best.ncd
07:52:07 INFO: 
[Reading url 8/98]: http://tds.secoora.org/thredds/dodsC/carocoops.cap2.buoy.nc
07:52:12 WARNING: [Not model data]: http://tds.secoora.org/thredds/dodsC/carocoops.cap2.buoy.nc
07:52:12 INFO: 
[Reading url 9/98]: http://tds.secoora.org/thredds/dodsC/carocoops.cap2.buoy_archive.nc
07:52:17 WARNING: [Not model data]: http://tds.secoora.org/thredds/dodsC/carocoops.cap2.buoy_archive.nc
07:52:17 INFO: 
[Reading url 10/98]: http://tds.secoora.org/thredds/dodsC/carocoops.frp2.buoy.nc
07:52:21 WARNING: [Not model data]: http://tds.secoora.org/thredds/dodsC/carocoops.frp2.buoy.nc
07:52:21 INFO: 
[Reading url 11/98]: http://tds.secoora.org/thredds/dodsC/carocoops.frp2.buoy_archive.nc
07:52:24 WARNING: [Not model data]: http://tds.secoora.org/thredds/dodsC/carocoops.frp2.buoy_archive.nc
07:52:24 INFO: 
[Reading url 12/98]: http://tds.secoora.org/thredds/dodsC/carocoops.sun2.buoy_archive.nc
07:52:29 WARNING: [Not model data]: http://tds.secoora.org/thredds/dodsC/carocoops.sun2.buoy_archive.nc
07:52:29 INFO: 
[Reading url 13/98]: http://tds.secoora.org/thredds/dodsC/enp.bdvf1.met.nc
07:52:35 WARNING: [Not model data]: http://tds.secoora.org/thredds/dodsC/enp.bdvf1.met.nc
07:52:35 INFO: 
[Reading url 14/98]: http://tds.secoora.org/thredds/dodsC/enp.bnkf1.met.nc
07:52:39 WARNING: [Not model data]: http://tds.secoora.org/thredds/dodsC/enp.bnkf1.met.nc
07:52:39 INFO: 
[Reading url 15/98]: http://tds.secoora.org/thredds/dodsC/enp.bobf1.met.nc
07:52:41 WARNING: [Not model data]: http://tds.secoora.org/thredds/dodsC/enp.bobf1.met.nc
07:52:41 INFO: 
[Reading url 16/98]: http://tds.secoora.org/thredds/dodsC/enp.bwsf1.met.nc
07:52:45 WARNING: [Not model data]: http://tds.secoora.org/thredds/dodsC/enp.bwsf1.met.nc
07:52:45 INFO: 
[Reading url 17/98]: http://tds.secoora.org/thredds/dodsC/enp.canf1.met.nc
07:52:49 WARNING: [Not model data]: http://tds.secoora.org/thredds/dodsC/enp.canf1.met.nc
07:52:49 INFO: 
[Reading url 18/98]: http://tds.secoora.org/thredds/dodsC/enp.cnbf1.met.nc
07:52:53 WARNING: [Not model data]: http://tds.secoora.org/thredds/dodsC/enp.cnbf1.met.nc
07:52:53 INFO: 
[Reading url 19/98]: http://tds.secoora.org/thredds/dodsC/enp.cwaf1.met.nc
07:52:57 WARNING: [Not model data]: http://tds.secoora.org/thredds/dodsC/enp.cwaf1.met.nc
07:52:57 INFO: 
[Reading url 20/98]: http://tds.secoora.org/thredds/dodsC/enp.dkkf1.met.nc
07:53:01 WARNING: [Not model data]: http://tds.secoora.org/thredds/dodsC/enp.dkkf1.met.nc
07:53:01 INFO: 
[Reading url 21/98]: http://tds.secoora.org/thredds/dodsC/enp.gbif1.met.nc
07:53:05 WARNING: [Not model data]: http://tds.secoora.org/thredds/dodsC/enp.gbif1.met.nc
07:53:05 INFO: 
[Reading url 22/98]: http://tds.secoora.org/thredds/dodsC/enp.gbtf1.met.nc
07:53:08 WARNING: [Not model data]: http://tds.secoora.org/thredds/dodsC/enp.gbtf1.met.nc
07:53:08 INFO: 
[Reading url 23/98]: http://tds.secoora.org/thredds/dodsC/enp.hcef1.met.nc
07:53:12 WARNING: [Not model data]: http://tds.secoora.org/thredds/dodsC/enp.hcef1.met.nc
07:53:12 INFO: 
[Reading url 24/98]: http://tds.secoora.org/thredds/dodsC/enp.jkyf1.met.nc
07:53:16 WARNING: [Not model data]: http://tds.secoora.org/thredds/dodsC/enp.jkyf1.met.nc
07:53:16 INFO: 
[Reading url 25/98]: http://tds.secoora.org/thredds/dodsC/enp.lbrf1.met.nc
07:53:20 WARNING: [Not model data]: http://tds.secoora.org/thredds/dodsC/enp.lbrf1.met.nc
07:53:20 INFO: 
[Reading url 26/98]: http://tds.secoora.org/thredds/dodsC/enp.lbsf1.met.nc
07:53:24 WARNING: [Not model data]: http://tds.secoora.org/thredds/dodsC/enp.lbsf1.met.nc
07:53:24 INFO: 
[Reading url 27/98]: http://tds.secoora.org/thredds/dodsC/enp.lmdf1.met.nc
07:53:28 WARNING: [Not model data]: http://tds.secoora.org/thredds/dodsC/enp.lmdf1.met.nc
07:53:28 INFO: 
[Reading url 28/98]: http://tds.secoora.org/thredds/dodsC/enp.lrif1.met.nc
07:53:32 WARNING: [Not model data]: http://tds.secoora.org/thredds/dodsC/enp.lrif1.met.nc
07:53:32 INFO: 
[Reading url 29/98]: http://tds.secoora.org/thredds/dodsC/enp.lrkf1.met.nc
07:53:36 WARNING: [Not model data]: http://tds.secoora.org/thredds/dodsC/enp.lrkf1.met.nc
07:53:36 INFO: 
[Reading url 30/98]: http://tds.secoora.org/thredds/dodsC/enp.mukf1.met.nc
07:53:40 WARNING: [Not model data]: http://tds.secoora.org/thredds/dodsC/enp.mukf1.met.nc
07:53:40 INFO: 
[Reading url 31/98]: http://tds.secoora.org/thredds/dodsC/enp.pkyf1.met.nc
07:53:44 WARNING: [Not model data]: http://tds.secoora.org/thredds/dodsC/enp.pkyf1.met.nc
07:53:44 INFO: 
[Reading url 32/98]: http://tds.secoora.org/thredds/dodsC/enp.tcvf1.met.nc
07:53:48 WARNING: [Not model data]: http://tds.secoora.org/thredds/dodsC/enp.tcvf1.met.nc
07:53:48 INFO: 
[Reading url 33/98]: http://tds.secoora.org/thredds/dodsC/enp.trrf1.met.nc
07:53:52 WARNING: [Not model data]: http://tds.secoora.org/thredds/dodsC/enp.trrf1.met.nc
07:53:52 INFO: 
[Reading url 34/98]: http://tds.secoora.org/thredds/dodsC/enp.wiwf1.met.nc
07:53:56 WARNING: [Not model data]: http://tds.secoora.org/thredds/dodsC/enp.wiwf1.met.nc
07:53:56 INFO: 
[Reading url 35/98]: http://tds.secoora.org/thredds/dodsC/enp.wrbf1.met.nc
07:54:00 WARNING: [Not model data]: http://tds.secoora.org/thredds/dodsC/enp.wrbf1.met.nc
07:54:00 INFO: 
[Reading url 36/98]: http://tds.secoora.org/thredds/dodsC/enp.wwef1.met.nc
07:54:04 WARNING: [Not model data]: http://tds.secoora.org/thredds/dodsC/enp.wwef1.met.nc
07:54:04 INFO: 
[Reading url 37/98]: http://tds.secoora.org/thredds/dodsC/fau.lobo.1.nc
07:54:14 WARNING: [Not model data]: http://tds.secoora.org/thredds/dodsC/fau.lobo.1.nc
07:54:14 INFO: 
[Reading url 38/98]: http://tds.secoora.org/thredds/dodsC/fldep.bingslanding..nc
07:54:20 WARNING: [Not model data]: http://tds.secoora.org/thredds/dodsC/fldep.bingslanding..nc
07:54:20 INFO: 
[Reading url 39/98]: http://tds.secoora.org/thredds/dodsC/fldep.stlucieinlet..nc
07:54:27 WARNING: Cannot get cube for: http://tds.secoora.org/thredds/dodsC/fldep.stlucieinlet..nc
> 1 cube found!  Expected just one.
 [<iris 'Cube' of sea_water_temperature / (celsius) (-- : 103562)>, <iris 'Cube' of sea_water_temperature / (celsius) (-- : 103562)>]
07:54:27 INFO: 
[Reading url 40/98]: http://tds.secoora.org/thredds/dodsC/fldep.tolomatoriver..nc
07:54:35 WARNING: [Not model data]: http://tds.secoora.org/thredds/dodsC/fldep.tolomatoriver..nc
07:54:35 INFO: 
[Reading url 41/98]: http://tds.secoora.org/thredds/dodsC/lbhmc.2ndave.pier.nc
07:54:41 WARNING: [Not model data]: http://tds.secoora.org/thredds/dodsC/lbhmc.2ndave.pier.nc
07:54:41 INFO: 
[Reading url 42/98]: http://tds.secoora.org/thredds/dodsC/lbhmc.apachepier.pier.nc
07:54:46 WARNING: [Not model data]: http://tds.secoora.org/thredds/dodsC/lbhmc.apachepier.pier.nc
07:54:46 INFO: 
[Reading url 43/98]: http://tds.secoora.org/thredds/dodsC/lbhmc.cherrygrove.pier.nc
07:54:51 WARNING: Cannot get cube for: http://tds.secoora.org/thredds/dodsC/lbhmc.cherrygrove.pier.nc
> 1 cube found!  Expected just one.
 [<iris 'Cube' of sea_water_temperature / (celsius) (-- : 41108)>, <iris 'Cube' of sea_water_temperature / (celsius) (-- : 41108)>]
07:54:51 INFO: 
[Reading url 44/98]: http://tds.secoora.org/thredds/dodsC/sccf.fortmyers.wq.nc
07:54:55 WARNING: [Not model data]: http://tds.secoora.org/thredds/dodsC/sccf.fortmyers.wq.nc
07:54:55 INFO: 
[Reading url 45/98]: http://tds.secoora.org/thredds/dodsC/sccf.gulfofmexico.wq.nc
07:54:59 WARNING: [Not model data]: http://tds.secoora.org/thredds/dodsC/sccf.gulfofmexico.wq.nc
07:54:59 INFO: 
[Reading url 46/98]: http://tds.secoora.org/thredds/dodsC/sccf.redfishpass.wq.nc
07:55:03 WARNING: [Not model data]: http://tds.secoora.org/thredds/dodsC/sccf.redfishpass.wq.nc
07:55:03 INFO: 
[Reading url 47/98]: http://tds.secoora.org/thredds/dodsC/sccf.shellpoint.wq.nc
07:55:07 WARNING: [Not model data]: http://tds.secoora.org/thredds/dodsC/sccf.shellpoint.wq.nc
07:55:07 INFO: 
[Reading url 48/98]: http://tds.secoora.org/thredds/dodsC/sccf.tarponbay.wq.nc
07:55:12 WARNING: [Not model data]: http://tds.secoora.org/thredds/dodsC/sccf.tarponbay.wq.nc
07:55:12 INFO: 
[Reading url 49/98]: http://tds.secoora.org/thredds/dodsC/usf.c10.mcat.nc
07:55:16 WARNING: Cannot get cube for: http://tds.secoora.org/thredds/dodsC/usf.c10.mcat.nc
> 1 cube found!  Expected just one.
 [<iris 'Cube' of sea_water_temperature / (celsius) (time: 48234)>, <iris 'Cube' of sea_water_temperature / (celsius) (time: 48234)>]
07:55:16 INFO: 
[Reading url 50/98]: http://tds.secoora.org/thredds/dodsC/usf.c21.weatherpak.nc
07:55:20 WARNING: Cannot get cube for: http://tds.secoora.org/thredds/dodsC/usf.c21.weatherpak.nc
Cannot find ['sea_water_temperature', 'sea_surface_temperature', 'sea_water_potential_temperature', 'equivalent_potential_temperature', 'sea_water_conservative_temperature', 'pseudo_equivalent_potential_temperature'] in http://tds.secoora.org/thredds/dodsC/usf.c21.weatherpak.nc.
07:55:20 INFO: 
[Reading url 51/98]: http://tds.secoora.org/thredds/dodsC/usf.shp.ngwlms.nc
07:55:25 WARNING: [Not model data]: http://tds.secoora.org/thredds/dodsC/usf.shp.ngwlms.nc
07:55:25 INFO: 
[Reading url 52/98]: http://thredds.cdip.ucsd.edu/thredds/dodsC/cdip/archive/028p1/028p1_d16.nc
07:55:31 WARNING: [Not model data]: http://thredds.cdip.ucsd.edu/thredds/dodsC/cdip/archive/028p1/028p1_d16.nc
07:55:31 INFO: 
[Reading url 53/98]: http://thredds.cdip.ucsd.edu/thredds/dodsC/cdip/archive/028p1/028p1_historic.nc
07:55:45 WARNING: [Not model data]: http://thredds.cdip.ucsd.edu/thredds/dodsC/cdip/archive/028p1/028p1_historic.nc
07:55:45 INFO: 
[Reading url 54/98]: http://thredds.cdip.ucsd.edu/thredds/dodsC/cdip/archive/029p1/029p1_d19.nc
07:55:50 WARNING: [Not model data]: http://thredds.cdip.ucsd.edu/thredds/dodsC/cdip/archive/029p1/029p1_d19.nc
07:55:50 INFO: 
[Reading url 55/98]: http://thredds.cdip.ucsd.edu/thredds/dodsC/cdip/archive/029p1/029p1_historic.nc
07:56:04 WARNING: [Not model data]: http://thredds.cdip.ucsd.edu/thredds/dodsC/cdip/archive/029p1/029p1_historic.nc
07:56:04 INFO: 
[Reading url 56/98]: http://thredds.cdip.ucsd.edu/thredds/dodsC/cdip/archive/036p1/036p1_d40.nc
07:56:10 WARNING: [Not model data]: http://thredds.cdip.ucsd.edu/thredds/dodsC/cdip/archive/036p1/036p1_d40.nc
07:56:10 INFO: 
[Reading url 57/98]: http://thredds.cdip.ucsd.edu/thredds/dodsC/cdip/archive/043p1/043p1_d16.nc
07:56:17 WARNING: [Not model data]: http://thredds.cdip.ucsd.edu/thredds/dodsC/cdip/archive/043p1/043p1_d16.nc
07:56:17 INFO: 
[Reading url 58/98]: http://thredds.cdip.ucsd.edu/thredds/dodsC/cdip/archive/043p1/043p1_d17.nc
07:56:21 WARNING: [Not model data]: http://thredds.cdip.ucsd.edu/thredds/dodsC/cdip/archive/043p1/043p1_d17.nc
07:56:21 INFO: 
[Reading url 59/98]: http://thredds.cdip.ucsd.edu/thredds/dodsC/cdip/archive/045p1/045p1_historic.nc
07:56:38 WARNING: [Not model data]: http://thredds.cdip.ucsd.edu/thredds/dodsC/cdip/archive/045p1/045p1_historic.nc
07:56:38 INFO: 
[Reading url 60/98]: http://thredds.cdip.ucsd.edu/thredds/dodsC/cdip/archive/067p1/067p1_d22.nc
07:56:44 WARNING: [Not model data]: http://thredds.cdip.ucsd.edu/thredds/dodsC/cdip/archive/067p1/067p1_d22.nc
07:56:44 INFO: 
[Reading url 61/98]: http://thredds.cdip.ucsd.edu/thredds/dodsC/cdip/archive/067p1/067p1_historic.nc
07:57:05 WARNING: [Not model data]: http://thredds.cdip.ucsd.edu/thredds/dodsC/cdip/archive/067p1/067p1_historic.nc
07:57:05 INFO: 
[Reading url 62/98]: http://thredds.cdip.ucsd.edu/thredds/dodsC/cdip/archive/076p1/076p1_d27.nc
07:57:11 WARNING: [Not model data]: http://thredds.cdip.ucsd.edu/thredds/dodsC/cdip/archive/076p1/076p1_d27.nc
07:57:11 INFO: 
[Reading url 63/98]: http://thredds.cdip.ucsd.edu/thredds/dodsC/cdip/archive/093p1/093p1_d40.nc
07:57:14 WARNING: [Not model data]: http://thredds.cdip.ucsd.edu/thredds/dodsC/cdip/archive/093p1/093p1_d40.nc
07:57:14 INFO: 
[Reading url 64/98]: http://thredds.cdip.ucsd.edu/thredds/dodsC/cdip/archive/098p1/098p1_historic.nc
07:57:24 WARNING: [Not model data]: http://thredds.cdip.ucsd.edu/thredds/dodsC/cdip/archive/098p1/098p1_historic.nc
07:57:24 INFO: 
[Reading url 65/98]: http://thredds.cdip.ucsd.edu/thredds/dodsC/cdip/archive/100p1/100p1_d13.nc
07:57:26 WARNING: [Not model data]: http://thredds.cdip.ucsd.edu/thredds/dodsC/cdip/archive/100p1/100p1_d13.nc
07:57:26 INFO: 
[Reading url 66/98]: http://thredds.cdip.ucsd.edu/thredds/dodsC/cdip/archive/100p1/100p1_historic.nc
07:57:40 WARNING: [Not model data]: http://thredds.cdip.ucsd.edu/thredds/dodsC/cdip/archive/100p1/100p1_historic.nc
07:57:40 INFO: 
[Reading url 67/98]: http://thredds.cdip.ucsd.edu/thredds/dodsC/cdip/archive/132p1/132p1_d11.nc
07:57:46 WARNING: [Not model data]: http://thredds.cdip.ucsd.edu/thredds/dodsC/cdip/archive/132p1/132p1_d11.nc
07:57:46 INFO: 
[Reading url 68/98]: http://thredds.cdip.ucsd.edu/thredds/dodsC/cdip/archive/132p1/132p1_historic.nc
07:57:54 WARNING: [Not model data]: http://thredds.cdip.ucsd.edu/thredds/dodsC/cdip/archive/132p1/132p1_historic.nc
07:57:54 INFO: 
[Reading url 69/98]: http://thredds.cdip.ucsd.edu/thredds/dodsC/cdip/archive/134p1/134p1_d09.nc
07:58:01 WARNING: [Not model data]: http://thredds.cdip.ucsd.edu/thredds/dodsC/cdip/archive/134p1/134p1_d09.nc
07:58:01 INFO: 
[Reading url 70/98]: http://thredds.cdip.ucsd.edu/thredds/dodsC/cdip/archive/134p1/134p1_historic.nc
07:58:21 WARNING: [Not model data]: http://thredds.cdip.ucsd.edu/thredds/dodsC/cdip/archive/134p1/134p1_historic.nc
07:58:21 INFO: 
[Reading url 71/98]: http://thredds.cdip.ucsd.edu/thredds/dodsC/cdip/archive/139p1/139p1_d08.nc
07:58:27 WARNING: [Not model data]: http://thredds.cdip.ucsd.edu/thredds/dodsC/cdip/archive/139p1/139p1_d08.nc
07:58:27 INFO: 
[Reading url 72/98]: http://thredds.cdip.ucsd.edu/thredds/dodsC/cdip/archive/139p1/139p1_historic.nc
07:58:38 WARNING: [Not model data]: http://thredds.cdip.ucsd.edu/thredds/dodsC/cdip/archive/139p1/139p1_historic.nc
07:58:38 INFO: 
[Reading url 73/98]: http://thredds.cdip.ucsd.edu/thredds/dodsC/cdip/archive/142p1/142p1_d14.nc
07:58:44 WARNING: [Not model data]: http://thredds.cdip.ucsd.edu/thredds/dodsC/cdip/archive/142p1/142p1_d14.nc
07:58:44 INFO: 
[Reading url 74/98]: http://thredds.cdip.ucsd.edu/thredds/dodsC/cdip/archive/142p1/142p1_historic.nc
07:58:50 WARNING: [Not model data]: http://thredds.cdip.ucsd.edu/thredds/dodsC/cdip/archive/142p1/142p1_historic.nc
07:58:50 INFO: 
[Reading url 75/98]: http://thredds.cdip.ucsd.edu/thredds/dodsC/cdip/archive/143p1/143p1_d11.nc
07:58:55 WARNING: [Not model data]: http://thredds.cdip.ucsd.edu/thredds/dodsC/cdip/archive/143p1/143p1_d11.nc
07:58:55 INFO: 
[Reading url 76/98]: http://thredds.cdip.ucsd.edu/thredds/dodsC/cdip/archive/143p1/143p1_historic.nc
07:59:03 WARNING: [Not model data]: http://thredds.cdip.ucsd.edu/thredds/dodsC/cdip/archive/143p1/143p1_historic.nc
07:59:03 INFO: 
[Reading url 77/98]: http://thredds.cdip.ucsd.edu/thredds/dodsC/cdip/archive/144p1/144p1_d07.nc
07:59:09 WARNING: [Not model data]: http://thredds.cdip.ucsd.edu/thredds/dodsC/cdip/archive/144p1/144p1_d07.nc
07:59:09 INFO: 
[Reading url 78/98]: http://thredds.cdip.ucsd.edu/thredds/dodsC/cdip/archive/144p1/144p1_historic.nc
07:59:15 WARNING: [Not model data]: http://thredds.cdip.ucsd.edu/thredds/dodsC/cdip/archive/144p1/144p1_historic.nc
07:59:15 INFO: 
[Reading url 79/98]: http://thredds.cdip.ucsd.edu/thredds/dodsC/cdip/archive/150p1/150p1_d07.nc
07:59:20 WARNING: [Not model data]: http://thredds.cdip.ucsd.edu/thredds/dodsC/cdip/archive/150p1/150p1_d07.nc
07:59:20 INFO: 
[Reading url 80/98]: http://thredds.cdip.ucsd.edu/thredds/dodsC/cdip/archive/150p1/150p1_historic.nc
07:59:26 WARNING: [Not model data]: http://thredds.cdip.ucsd.edu/thredds/dodsC/cdip/archive/150p1/150p1_historic.nc
07:59:26 INFO: 
[Reading url 81/98]: http://thredds.cdip.ucsd.edu/thredds/dodsC/cdip/archive/156p1/156p1_d07.nc
07:59:31 WARNING: [Not model data]: http://thredds.cdip.ucsd.edu/thredds/dodsC/cdip/archive/156p1/156p1_d07.nc
07:59:31 INFO: 
[Reading url 82/98]: http://thredds.cdip.ucsd.edu/thredds/dodsC/cdip/archive/162p1/162p1_d04.nc
07:59:45 WARNING: [Not model data]: http://thredds.cdip.ucsd.edu/thredds/dodsC/cdip/archive/162p1/162p1_d04.nc
07:59:45 INFO: 
[Reading url 83/98]: http://thredds.cdip.ucsd.edu/thredds/dodsC/cdip/archive/166p1/166p1_d02.nc
07:59:58 WARNING: [Not model data]: http://thredds.cdip.ucsd.edu/thredds/dodsC/cdip/archive/166p1/166p1_d02.nc
07:59:58 INFO: 
[Reading url 84/98]: http://thredds.cdip.ucsd.edu/thredds/dodsC/cdip/archive/168p1/168p1_d05.nc
08:00:03 WARNING: [Not model data]: http://thredds.cdip.ucsd.edu/thredds/dodsC/cdip/archive/168p1/168p1_d05.nc
08:00:03 INFO: 
[Reading url 85/98]: http://thredds.cdip.ucsd.edu/thredds/dodsC/cdip/archive/179p1/179p1_d04.nc
08:00:07 WARNING: [Not model data]: http://thredds.cdip.ucsd.edu/thredds/dodsC/cdip/archive/179p1/179p1_d04.nc
08:00:07 INFO: 
[Reading url 86/98]: http://thredds.cdip.ucsd.edu/thredds/dodsC/cdip/archive/185p1/185p1_d02.nc
08:00:13 WARNING: [Not model data]: http://thredds.cdip.ucsd.edu/thredds/dodsC/cdip/archive/185p1/185p1_d02.nc
08:00:13 INFO: 
[Reading url 87/98]: http://thredds.cdip.ucsd.edu/thredds/dodsC/cdip/archive/185p1/185p1_d03.nc
08:00:16 WARNING: [Not model data]: http://thredds.cdip.ucsd.edu/thredds/dodsC/cdip/archive/185p1/185p1_d03.nc
08:00:16 INFO: 
[Reading url 88/98]: http://thredds.cdip.ucsd.edu/thredds/dodsC/cdip/archive/186p1/186p1_d03.nc
08:00:23 WARNING: [Not model data]: http://thredds.cdip.ucsd.edu/thredds/dodsC/cdip/archive/186p1/186p1_d03.nc
08:00:23 INFO: 
[Reading url 89/98]: http://thredds.cdip.ucsd.edu/thredds/dodsC/cdip/archive/190p1/190p1_d02.nc
08:00:26 WARNING: [Not model data]: http://thredds.cdip.ucsd.edu/thredds/dodsC/cdip/archive/190p1/190p1_d02.nc
08:00:26 INFO: 
[Reading url 90/98]: http://thredds.cdip.ucsd.edu/thredds/dodsC/cdip/archive/190p1/190p1_historic.nc
08:00:38 WARNING: [Not model data]: http://thredds.cdip.ucsd.edu/thredds/dodsC/cdip/archive/190p1/190p1_historic.nc
08:00:38 INFO: 
[Reading url 91/98]: http://thredds.cdip.ucsd.edu/thredds/dodsC/cdip/archive/191p1/191p1_d12.nc
08:00:44 WARNING: [Not model data]: http://thredds.cdip.ucsd.edu/thredds/dodsC/cdip/archive/191p1/191p1_d12.nc
08:00:44 INFO: 
[Reading url 92/98]: http://thredds.cdip.ucsd.edu/thredds/dodsC/cdip/archive/192p1/192p1_d02.nc
08:00:57 WARNING: [Not model data]: http://thredds.cdip.ucsd.edu/thredds/dodsC/cdip/archive/192p1/192p1_d02.nc
08:00:57 INFO: 
[Reading url 93/98]: http://thredds.cdip.ucsd.edu/thredds/dodsC/cdip/archive/192p1/192p1_historic.nc
08:01:02 WARNING: [Not model data]: http://thredds.cdip.ucsd.edu/thredds/dodsC/cdip/archive/192p1/192p1_historic.nc
08:01:02 INFO: 
[Reading url 94/98]: http://thredds.cdip.ucsd.edu/thredds/dodsC/cdip/archive/201p1/201p1_d02.nc
08:01:16 WARNING: [Not model data]: http://thredds.cdip.ucsd.edu/thredds/dodsC/cdip/archive/201p1/201p1_d02.nc
08:01:16 INFO: 
[Reading url 95/98]: http://thredds.cdip.ucsd.edu/thredds/dodsC/cdip/archive/203p1/203p1_d01.nc
08:01:22 WARNING: [Not model data]: http://thredds.cdip.ucsd.edu/thredds/dodsC/cdip/archive/203p1/203p1_d01.nc
08:01:22 INFO: 
[Reading url 96/98]: http://thredds.cdip.ucsd.edu/thredds/dodsC/cdip/archive/430p1/430p1_historic.nc
08:01:28 WARNING: [Not model data]: http://thredds.cdip.ucsd.edu/thredds/dodsC/cdip/archive/430p1/430p1_historic.nc
08:01:28 INFO: 
[Reading url 97/98]: http://omgsrv1.meas.ncsu.edu:8080/thredds/dodsC/fmrc/us_east/US_East_Forecast_Model_Run_Collection_best.ncd
08:01:40 WARNING: Cannot get cube for: http://omgsrv1.meas.ncsu.edu:8080/thredds/dodsC/fmrc/us_east/US_East_Forecast_Model_Run_Collection_best.ncd
istart must be different from istop! Got istart 0 and  istop 0
08:01:40 INFO: 
[Reading url 98/98]: http://crow.marine.usf.edu:8080/thredds/dodsC/WFS_SWAN_NF_model/USF_Ocean_Circulation_Group_West_Florida_Shelf_Daily_SWAN_Nowcast_Forecast_Wave_Model_Data_best.ncd
08:01:42 WARNING: Cannot get cube for: http://crow.marine.usf.edu:8080/thredds/dodsC/WFS_SWAN_NF_model/USF_Ocean_Circulation_Group_West_Florida_Shelf_Daily_SWAN_Nowcast_Forecast_Wave_Model_Data_best.ncd
Cannot find ['sea_water_temperature', 'sea_surface_temperature', 'sea_water_potential_temperature', 'equivalent_potential_temperature', 'sea_water_conservative_temperature', 'pseudo_equivalent_potential_temperature'] in http://crow.marine.usf.edu:8080/thredds/dodsC/WFS_SWAN_NF_model/USF_Ocean_Circulation_Group_West_Florida_Shelf_Daily_SWAN_Nowcast_Forecast_Wave_Model_Data_best.ncd.
08:01:42 INFO: **** Downloading to file 2014-07-07/2014-07-07-USF_ROMS.nc *****
08:01:42 INFO: [No Data] Duck, NC
08:01:42 INFO: [No Data] Oregon Inlet Marina, NC
08:01:42 INFO: [No Data] USCG Station Hatteras, NC
08:01:42 INFO: [No Data] Beaufort, NC
08:01:42 INFO: [No Data] Wilmington, NC
08:01:42 INFO: [No Data] Wrightsville Beach, NC
08:01:42 INFO: [No Data] Springmaid Pier, SC
08:01:42 INFO: [No Data] Charleston, SC
08:01:42 INFO: [No Data] Fort Pulaski, GA
08:01:42 INFO: [No Data] Fernandina Beach, FL
08:01:42 INFO: [No Data] Mayport (Bar Pilots Dock), FL
08:01:42 INFO: [No Data] Dames Point, FL
08:01:42 INFO: [No Data] Jacksonville University, FL
08:01:42 INFO: [No Data] I-295 Bridge, St Johns River, FL
08:01:42 INFO: [No Data] Red Bay Point, St Johns River, FL
08:01:42 INFO: [No Data] Racy Point, St Johns River, FL
08:01:42 INFO: [No Data] Trident Pier, FL
08:01:42 INFO: [No Data] Lake Worth Pier, FL
08:01:42 INFO: [No Data] Vaca Key, FL
08:01:42 INFO: [No Data] Key West, FL
08:01:46 INFO: [Water  ] Naples, FL
08:01:50 INFO: [Water  ] Fort Myers, FL
08:01:59 INFO: [Water  ] Port Manatee, FL
08:01:59 INFO: [No Data] St Petersburg, FL
08:02:03 INFO: [Water  ] Old Port Tampa, FL
08:02:11 INFO: [Water  ] Apalachicola, FL
08:02:19 INFO: [Water  ] Panama City, FL
08:02:27 INFO: [Water  ] Panama City Beach, FL
08:02:27 INFO: [No Data] Pensacola, FL
08:02:34 INFO: [Water  ] Gulf of Mexico station
08:02:34 INFO: [No Data] Taylor River, FL
08:02:37 INFO: [Water  ] Redfish Pass station
08:02:37 INFO: [No Data] Little Rabbit Key, FL
08:02:43 INFO: [Water  ] Peterson Key, FL
08:02:43 INFO: [No Data] CORMP ILM2, Wrightsville Beach Nearshore, NC
08:02:43 INFO: [No Data] fau_lobo_1
08:02:43 INFO: [No Data] Cherry Grove Pier, N. Myrtle Beach, SC
08:02:47 INFO: [Water  ] Tarpon Bay station
08:02:51 INFO: [Water  ] Broad River, FL
08:02:59 INFO: [Water  ] Murray Key, FL
08:03:07 INFO: [Water  ] Blackwater Sound, FL
08:03:11 INFO: [Water  ] Butternut Key, FL
08:03:15 INFO: [Water  ] Shell Point station
08:03:15 INFO: [No Data] 2nd Ave North Pier, Myrtle Beach, SC
08:03:20 INFO: [Water  ] Little Blackwater, FL
08:03:20 INFO: [No Data] Trout Cove, FL
08:03:20 INFO: [No Data] White Water -West, FL
08:03:24 INFO: [Water  ] Cane Patch, FL
08:03:24 INFO: [No Data] Sebastian Inlet met station
08:03:36 INFO: [Water  ] Shell Point
08:03:36 INFO: [No Data] Bing&#39;s Landing station
08:03:36 INFO: [No Data] CAROCOOPS CAP2, Capers Island Nearshore, SC
08:03:40 INFO: [Water  ] Johnson Key, FL
08:03:44 INFO: [Water  ] Broad River Lower, FL
08:03:48 INFO: [Water  ] Clear Water Pass, FL 
08:03:48 INFO: [No Data] Little Madeira, FL
08:03:52 INFO: [Water  ] Highway Creek, FL
08:03:52 INFO: [No Data] Gunboat Island, FL
08:03:52 INFO: [No Data] CAROCOOPS FRP2, Fripp Nearshore, SC
08:04:00 INFO: [Water  ] Cannon Bay, FL
08:04:00 INFO: [No Data] Apache Pier, Myrtle Beach, SC
08:04:00 INFO: [No Data] Tolomato River station
08:04:00 INFO: [No Data] Whipray Basin, FL
08:04:00 INFO: [No Data] Garfield Bight, FL
08:04:04 INFO: [Water  ] Lane River, FL 
08:04:04 INFO: [No Data] St Lucie Inlet station
08:04:04 INFO: [No Data] Duck Key, FL
08:04:04 INFO: [No Data] CORMP ILM3, Wrightsville Beach Offshore, NC
08:04:04 INFO: [No Data] Fort Myers station
08:04:12 INFO: [Water  ] Willy Willy, FL
08:04:12 INFO: [No Data] CAROCOOPS SUN2, Sunset Nearshore, NC
08:04:20 INFO: [Water  ] Bob Allen, FL
08:05:12 INFO: Finished processing [USF_ROMS]: http://crow.marine.usf.edu:8080/thredds/dodsC/WFS_SWAN_NF_model/USF_Ocean_Circulation_Group_West_Florida_Shelf_Daily_SWAN_Nowcast_Forecast_Wave_Model_Data_best.ncd

08:05:12 INFO: * Downloading to file 2014-07-07/2014-07-07-SABGOM_ARCHIVE.nc **
08:05:24 INFO: [Water  ] Duck, NC
08:05:30 INFO: [Land   ] Oregon Inlet Marina, NC
08:05:36 INFO: [Water  ] USCG Station Hatteras, NC
08:05:41 INFO: [Land   ] Beaufort, NC
08:05:46 INFO: [Land   ] Wilmington, NC
08:05:52 INFO: [Water  ] Wrightsville Beach, NC
08:05:57 INFO: [Water  ] Springmaid Pier, SC
08:06:03 INFO: [Land   ] Charleston, SC
08:06:08 INFO: [Land   ] Fort Pulaski, GA
08:06:14 INFO: [Land   ] Fernandina Beach, FL
08:06:19 INFO: [Land   ] Mayport (Bar Pilots Dock), FL
08:06:24 INFO: [Land   ] Dames Point, FL
08:06:30 INFO: [Land   ] Jacksonville University, FL
08:06:36 INFO: [Land   ] I-295 Bridge, St Johns River, FL
08:06:42 INFO: [Land   ] Red Bay Point, St Johns River, FL
08:06:47 INFO: [Land   ] Racy Point, St Johns River, FL
08:06:59 INFO: [Land   ] Trident Pier, FL
08:07:09 INFO: [Land   ] Lake Worth Pier, FL
08:07:19 INFO: [Land   ] Vaca Key, FL
08:07:25 INFO: [Water  ] Key West, FL
08:07:30 INFO: [Land   ] Naples, FL
08:07:35 INFO: [Land   ] Fort Myers, FL
08:07:46 INFO: [Land   ] Port Manatee, FL
08:07:57 INFO: [Land   ] St Petersburg, FL
08:08:07 INFO: [Water  ] Old Port Tampa, FL
08:08:13 INFO: [Land   ] Apalachicola, FL
08:08:18 INFO: [Land   ] Panama City, FL
08:08:29 INFO: [Water  ] Panama City Beach, FL
08:08:35 INFO: [Land   ] Pensacola, FL
08:08:46 INFO: [Land   ] Gulf of Mexico station
08:08:51 INFO: [Land   ] Taylor River, FL
08:09:01 INFO: [Water  ] Redfish Pass station
08:09:07 INFO: [Water  ] Little Rabbit Key, FL
08:09:17 INFO: [Water  ] Peterson Key, FL
08:09:22 INFO: [Water  ] CORMP ILM2, Wrightsville Beach Nearshore, NC
08:09:29 INFO: [Land   ] fau_lobo_1
08:09:35 INFO: [Land   ] Cherry Grove Pier, N. Myrtle Beach, SC
08:09:46 INFO: [Water  ] Tarpon Bay station
08:10:02 INFO: [Land   ] Broad River, FL
08:10:31 INFO: [Water  ] Murray Key, FL
08:10:43 INFO: [Land   ] Blackwater Sound, FL
08:10:50 INFO: [Water  ] Butternut Key, FL
08:10:56 INFO: [Land   ] Shell Point station
08:11:08 INFO: [Land   ] 2nd Ave North Pier, Myrtle Beach, SC
08:11:14 INFO: [Land   ] Little Blackwater, FL
08:11:30 INFO: [Land   ] Trout Cove, FL
08:11:37 INFO: [Land   ] White Water -West, FL
08:11:42 INFO: [Land   ] Cane Patch, FL
08:11:56 INFO: [Water  ] Sebastian Inlet met station
08:12:02 INFO: [Land   ] Shell Point
08:12:08 INFO: [Land   ] Bing&#39;s Landing station
08:12:14 INFO: [Water  ] CAROCOOPS CAP2, Capers Island Nearshore, SC
08:12:20 INFO: [Water  ] Johnson Key, FL
08:12:31 INFO: [Land   ] Broad River Lower, FL
08:12:38 INFO: [Land   ] Clear Water Pass, FL 
08:12:50 INFO: [Water  ] Little Madeira, FL
08:12:56 INFO: [Land   ] Highway Creek, FL
08:13:05 INFO: [Land   ] Gunboat Island, FL
08:13:11 INFO: [Water  ] CAROCOOPS FRP2, Fripp Nearshore, SC
08:13:17 INFO: [Land   ] Cannon Bay, FL
08:13:23 INFO: [Land   ] Apache Pier, Myrtle Beach, SC
08:13:28 INFO: [Land   ] Tolomato River station
08:13:44 INFO: [Water  ] Whipray Basin, FL
08:13:50 INFO: [Land   ] Garfield Bight, FL
08:13:57 INFO: [Land   ] Lane River, FL 
08:14:12 INFO: [Water  ] St Lucie Inlet station
08:14:24 INFO: [Water  ] Duck Key, FL
08:14:38 INFO: [Water  ] CORMP ILM3, Wrightsville Beach Offshore, NC
08:14:45 INFO: [Land   ] Fort Myers station
08:14:51 INFO: [Land   ] Willy Willy, FL
08:15:03 INFO: [Water  ] CAROCOOPS SUN2, Sunset Nearshore, NC
08:15:17 INFO: [Water  ] Bob Allen, FL
08:16:39 INFO: Finished processing [SABGOM_ARCHIVE]: http://crow.marine.usf.edu:8080/thredds/dodsC/WFS_SWAN_NF_model/USF_Ocean_Circulation_Group_West_Florida_Shelf_Daily_SWAN_Nowcast_Forecast_Wave_Model_Data_best.ncd

08:16:39 INFO: **** Downloading to file 2014-07-07/2014-07-07-COAWST_4.nc *****
08:17:00 INFO: [Land   ] Duck, NC
08:17:19 INFO: [Water  ] Oregon Inlet Marina, NC
08:17:29 INFO: [Water  ] USCG Station Hatteras, NC
08:17:50 INFO: [Land   ] Beaufort, NC
08:18:00 INFO: [Land   ] Wilmington, NC
08:18:11 INFO: [Water  ] Wrightsville Beach, NC
08:18:30 INFO: [Water  ] Springmaid Pier, SC
08:18:43 INFO: [Land   ] Charleston, SC
08:18:54 INFO: [Land   ] Fort Pulaski, GA
08:19:04 INFO: [Land   ] Fernandina Beach, FL
08:19:14 INFO: [Land   ] Mayport (Bar Pilots Dock), FL
08:19:24 INFO: [Land   ] Dames Point, FL
08:19:34 INFO: [Land   ] Jacksonville University, FL
08:19:44 INFO: [Land   ] I-295 Bridge, St Johns River, FL
08:19:54 INFO: [Land   ] Red Bay Point, St Johns River, FL
08:20:04 INFO: [Land   ] Racy Point, St Johns River, FL
08:20:14 INFO: [Land   ] Trident Pier, FL
08:20:37 INFO: [Water  ] Lake Worth Pier, FL
08:20:50 INFO: [Land   ] Vaca Key, FL
08:21:11 INFO: [Water  ] Key West, FL
08:21:21 INFO: [Land   ] Naples, FL
08:21:31 INFO: [Land   ] Fort Myers, FL
08:21:41 INFO: [Land   ] Port Manatee, FL
08:21:52 INFO: [Land   ] St Petersburg, FL
08:22:12 INFO: [Water  ] Old Port Tampa, FL
08:22:23 INFO: [Water  ] Apalachicola, FL
08:22:35 INFO: [Water  ] Panama City, FL
08:22:56 INFO: [Land   ] Panama City Beach, FL
08:23:06 INFO: [Water  ] Pensacola, FL
08:23:27 INFO: [Water  ] Gulf of Mexico station
08:23:37 INFO: [Land   ] Taylor River, FL
08:23:57 INFO: [Water  ] Redfish Pass station
08:24:07 INFO: [Water  ] Little Rabbit Key, FL
08:24:17 INFO: [Water  ] Peterson Key, FL
08:24:39 INFO: [Water  ] CORMP ILM2, Wrightsville Beach Nearshore, NC
08:24:50 INFO: [Land   ] fau_lobo_1
08:25:00 INFO: [Land   ] Cherry Grove Pier, N. Myrtle Beach, SC
08:25:10 INFO: [Water  ] Tarpon Bay station
08:25:21 INFO: [Land   ] Broad River, FL
08:25:32 INFO: [Water  ] Murray Key, FL
08:25:42 INFO: [Land   ] Blackwater Sound, FL
08:26:03 INFO: [Water  ] Butternut Key, FL
08:26:23 INFO: [Land   ] Shell Point station
08:26:45 INFO: [Water  ] 2nd Ave North Pier, Myrtle Beach, SC
08:26:55 INFO: [Land   ] Little Blackwater, FL
08:27:05 INFO: [Land   ] Trout Cove, FL
08:27:15 INFO: [Water  ] White Water -West, FL
08:27:26 INFO: [Land   ] Cane Patch, FL
08:27:36 INFO: [Water  ] Sebastian Inlet met station
08:27:46 INFO: [Land   ] Shell Point
08:27:56 INFO: [Land   ] Bing&#39;s Landing station
08:28:17 INFO: [Water  ] CAROCOOPS CAP2, Capers Island Nearshore, SC
08:28:27 INFO: [Water  ] Johnson Key, FL
08:28:39 INFO: [Land   ] Broad River Lower, FL
08:28:49 INFO: [Water  ] Clear Water Pass, FL 
08:28:59 INFO: [Water  ] Little Madeira, FL
08:29:09 INFO: [Land   ] Highway Creek, FL
08:29:20 INFO: [Land   ] Gunboat Island, FL
08:29:30 INFO: [Water  ] CAROCOOPS FRP2, Fripp Nearshore, SC
08:29:40 INFO: [Land   ] Cannon Bay, FL
08:29:51 INFO: [Land   ] Apache Pier, Myrtle Beach, SC
08:30:01 INFO: [Land   ] Tolomato River station
08:30:21 INFO: [Water  ] Whipray Basin, FL
08:30:33 INFO: [Water  ] Garfield Bight, FL
08:30:43 INFO: [Land   ] Lane River, FL 
08:31:04 INFO: [Water  ] St Lucie Inlet station
08:31:14 INFO: [Water  ] Duck Key, FL
08:31:24 INFO: [Water  ] CORMP ILM3, Wrightsville Beach Offshore, NC
08:31:35 INFO: [Land   ] Fort Myers station
08:31:44 INFO: [Land   ] Willy Willy, FL
08:31:54 INFO: [Water  ] CAROCOOPS SUN2, Sunset Nearshore, NC
08:32:05 INFO: [Water  ] Bob Allen, FL
08:34:40 INFO: Finished processing [COAWST_4]: http://crow.marine.usf.edu:8080/thredds/dodsC/WFS_SWAN_NF_model/USF_Ocean_Circulation_Group_West_Florida_Shelf_Daily_SWAN_Nowcast_Forecast_Wave_Model_Data_best.ncd

08:34:40 INFO: **** Downloading to file 2014-07-07/2014-07-07-ESPRESSO.nc *****
08:34:55 INFO: [Land   ] Duck, NC
08:35:03 INFO: [Water  ] Oregon Inlet Marina, NC
08:35:11 INFO: [Land   ] USCG Station Hatteras, NC
08:35:19 INFO: [Water  ] Beaufort, NC
08:35:19 INFO: [No Data] Wilmington, NC
08:35:19 INFO: [No Data] Wrightsville Beach, NC
08:35:19 INFO: [No Data] Springmaid Pier, SC
08:35:19 INFO: [No Data] Charleston, SC
08:35:19 INFO: [No Data] Fort Pulaski, GA
08:35:19 INFO: [No Data] Fernandina Beach, FL
08:35:19 INFO: [No Data] Mayport (Bar Pilots Dock), FL
08:35:19 INFO: [No Data] Dames Point, FL
08:35:19 INFO: [No Data] Jacksonville University, FL
08:35:19 INFO: [No Data] I-295 Bridge, St Johns River, FL
08:35:19 INFO: [No Data] Red Bay Point, St Johns River, FL
08:35:19 INFO: [No Data] Racy Point, St Johns River, FL
08:35:19 INFO: [No Data] Trident Pier, FL
08:35:19 INFO: [No Data] Lake Worth Pier, FL
08:35:19 INFO: [No Data] Vaca Key, FL
08:35:19 INFO: [No Data] Key West, FL
08:35:19 INFO: [No Data] Naples, FL
08:35:19 INFO: [No Data] Fort Myers, FL
08:35:19 INFO: [No Data] Port Manatee, FL
08:35:19 INFO: [No Data] St Petersburg, FL
08:35:19 INFO: [No Data] Old Port Tampa, FL
08:35:19 INFO: [No Data] Apalachicola, FL
08:35:19 INFO: [No Data] Panama City, FL
08:35:19 INFO: [No Data] Panama City Beach, FL
08:35:19 INFO: [No Data] Pensacola, FL
08:35:19 INFO: [No Data] Gulf of Mexico station
08:35:19 INFO: [No Data] Taylor River, FL
08:35:19 INFO: [No Data] Redfish Pass station
08:35:19 INFO: [No Data] Little Rabbit Key, FL
08:35:19 INFO: [No Data] Peterson Key, FL
08:35:19 INFO: [No Data] CORMP ILM2, Wrightsville Beach Nearshore, NC
08:35:19 INFO: [No Data] fau_lobo_1
08:35:19 INFO: [No Data] Cherry Grove Pier, N. Myrtle Beach, SC
08:35:19 INFO: [No Data] Tarpon Bay station
08:35:19 INFO: [No Data] Broad River, FL
08:35:19 INFO: [No Data] Murray Key, FL
08:35:19 INFO: [No Data] Blackwater Sound, FL
08:35:19 INFO: [No Data] Butternut Key, FL
08:35:19 INFO: [No Data] Shell Point station
08:35:19 INFO: [No Data] 2nd Ave North Pier, Myrtle Beach, SC
08:35:19 INFO: [No Data] Little Blackwater, FL
08:35:19 INFO: [No Data] Trout Cove, FL
08:35:19 INFO: [No Data] White Water -West, FL
08:35:19 INFO: [No Data] Cane Patch, FL
08:35:19 INFO: [No Data] Sebastian Inlet met station
08:35:19 INFO: [No Data] Shell Point
08:35:19 INFO: [No Data] Bing&#39;s Landing station
08:35:19 INFO: [No Data] CAROCOOPS CAP2, Capers Island Nearshore, SC
08:35:19 INFO: [No Data] Johnson Key, FL
08:35:19 INFO: [No Data] Broad River Lower, FL
08:35:19 INFO: [No Data] Clear Water Pass, FL 
08:35:19 INFO: [No Data] Little Madeira, FL
08:35:19 INFO: [No Data] Highway Creek, FL
08:35:19 INFO: [No Data] Gunboat Island, FL
08:35:19 INFO: [No Data] CAROCOOPS FRP2, Fripp Nearshore, SC
08:35:19 INFO: [No Data] Cannon Bay, FL
08:35:19 INFO: [No Data] Apache Pier, Myrtle Beach, SC
08:35:19 INFO: [No Data] Tolomato River station
08:35:19 INFO: [No Data] Whipray Basin, FL
08:35:19 INFO: [No Data] Garfield Bight, FL
08:35:19 INFO: [No Data] Lane River, FL 
08:35:19 INFO: [No Data] St Lucie Inlet station
08:35:19 INFO: [No Data] Duck Key, FL
08:35:19 INFO: [No Data] CORMP ILM3, Wrightsville Beach Offshore, NC
08:35:19 INFO: [No Data] Fort Myers station
08:35:19 INFO: [No Data] Willy Willy, FL
08:35:19 INFO: [No Data] CAROCOOPS SUN2, Sunset Nearshore, NC
08:35:19 INFO: [No Data] Bob Allen, FL
08:35:23 INFO: Finished processing [ESPRESSO]: http://crow.marine.usf.edu:8080/thredds/dodsC/WFS_SWAN_NF_model/USF_Ocean_Circulation_Group_West_Florida_Shelf_Daily_SWAN_Nowcast_Forecast_Wave_Model_Data_best.ncd

08:35:23 INFO: ****** Downloading to file 2014-07-07/2014-07-07-HYCOM.nc ******
08:36:18 INFO: [Land   ] Duck, NC
08:36:22 INFO: [Water  ] Oregon Inlet Marina, NC
08:36:49 INFO: [Land   ] USCG Station Hatteras, NC
08:36:53 INFO: [Land   ] Beaufort, NC
08:36:57 INFO: [Land   ] Wilmington, NC
08:37:01 INFO: [Water  ] Wrightsville Beach, NC
08:37:01 INFO: [No Data] Springmaid Pier, SC
08:37:05 INFO: [Land   ] Charleston, SC
08:37:08 INFO: [Land   ] Fort Pulaski, GA
08:37:12 INFO: [Land   ] Fernandina Beach, FL
08:37:15 INFO: [Land   ] Mayport (Bar Pilots Dock), FL
08:37:19 INFO: [Land   ] Dames Point, FL
08:37:23 INFO: [Land   ] Jacksonville University, FL
08:37:27 INFO: [Land   ] I-295 Bridge, St Johns River, FL
08:37:31 INFO: [Land   ] Red Bay Point, St Johns River, FL
08:37:31 INFO: [No Data] Racy Point, St Johns River, FL
08:37:35 INFO: [Land   ] Trident Pier, FL
08:37:39 INFO: [Water  ] Lake Worth Pier, FL
08:37:42 INFO: [Land   ] Vaca Key, FL
08:37:47 INFO: [Land   ] Key West, FL
08:37:47 INFO: [No Data] Naples, FL
08:37:52 INFO: [Land   ] Fort Myers, FL
08:37:55 INFO: [Land   ] Port Manatee, FL
08:37:58 INFO: [Land   ] St Petersburg, FL
08:38:04 INFO: [Land   ] Old Port Tampa, FL
08:38:08 INFO: [Land   ] Apalachicola, FL
08:38:12 INFO: [Land   ] Panama City, FL
08:38:12 INFO: [No Data] Panama City Beach, FL
08:38:15 INFO: [Land   ] Pensacola, FL
08:38:19 INFO: [Land   ] Gulf of Mexico station
08:38:23 INFO: [Land   ] Taylor River, FL
08:38:27 INFO: [Land   ] Redfish Pass station
08:38:31 INFO: [Land   ] Little Rabbit Key, FL
08:38:36 INFO: [Land   ] Peterson Key, FL
08:38:36 INFO: [No Data] CORMP ILM2, Wrightsville Beach Nearshore, NC
08:38:40 INFO: [Land   ] fau_lobo_1
08:38:44 INFO: [Land   ] Cherry Grove Pier, N. Myrtle Beach, SC
08:38:48 INFO: [Land   ] Tarpon Bay station
08:38:48 INFO: [No Data] Broad River, FL
08:38:52 INFO: [Land   ] Murray Key, FL
08:38:52 INFO: [No Data] Blackwater Sound, FL
08:38:56 INFO: [Land   ] Butternut Key, FL
08:39:00 INFO: [Land   ] Shell Point station
08:39:04 INFO: [Land   ] 2nd Ave North Pier, Myrtle Beach, SC
08:39:08 INFO: [Land   ] Little Blackwater, FL
08:39:12 INFO: [Land   ] Trout Cove, FL
08:39:17 INFO: [Land   ] White Water -West, FL
08:39:22 INFO: [Land   ] Cane Patch, FL
08:39:28 INFO: [Land   ] Sebastian Inlet met station
08:39:33 INFO: [Land   ] Shell Point
08:39:37 INFO: [Land   ] Bing&#39;s Landing station
08:39:42 INFO: [Water  ] CAROCOOPS CAP2, Capers Island Nearshore, SC
08:39:48 INFO: [Land   ] Johnson Key, FL
08:39:52 INFO: [Land   ] Broad River Lower, FL
08:39:58 INFO: [Land   ] Clear Water Pass, FL 
08:40:03 INFO: [Land   ] Little Madeira, FL
08:40:03 INFO: [No Data] Highway Creek, FL
08:40:08 INFO: [Land   ] Gunboat Island, FL
08:40:18 INFO: [Water  ] CAROCOOPS FRP2, Fripp Nearshore, SC
08:40:23 INFO: [Land   ] Cannon Bay, FL
08:40:28 INFO: [Land   ] Apache Pier, Myrtle Beach, SC
08:40:33 INFO: [Land   ] Tolomato River station
08:40:38 INFO: [Land   ] Whipray Basin, FL
08:40:42 INFO: [Land   ] Garfield Bight, FL
08:40:46 INFO: [Land   ] Lane River, FL 
08:40:50 INFO: [Land   ] St Lucie Inlet station
08:40:54 INFO: [Land   ] Duck Key, FL
08:40:58 INFO: [Water  ] CORMP ILM3, Wrightsville Beach Offshore, NC
08:40:58 INFO: [No Data] Fort Myers station
08:41:03 INFO: [Land   ] Willy Willy, FL
08:41:06 INFO: [Water  ] CAROCOOPS SUN2, Sunset Nearshore, NC
08:41:06 INFO: [No Data] Bob Allen, FL
08:41:06 INFO: Finished processing [HYCOM]: http://crow.marine.usf.edu:8080/thredds/dodsC/WFS_SWAN_NF_model/USF_Ocean_Circulation_Group_West_Florida_Shelf_Daily_SWAN_Nowcast_Forecast_Wave_Model_Data_best.ncd

08:41:07 WARNING: /home/filipe/miniconda/envs/SECOORA/lib/python2.7/site-packages/numpy/core/_methods.py:59: RuntimeWarning: Mean of empty slice.
  warnings.warn("Mean of empty slice.", RuntimeWarning)

08:41:23 INFO: 69.70 minutes
08:41:23 INFO: EOF
