06:26:04 INFO: *********************** Run information ************************
06:26:04 INFO: Run date: 2015-01-29 21:26:04
06:26:04 INFO: Download start: 2014-06-30 12:00:00
06:26:04 INFO: Download stop: 2014-07-07 12:00:00
06:26:04 INFO: Bounding box: -87.40, 24.25,-74.70, 36.70
06:26:04 INFO: *********************** Software version ***********************
06:26:04 INFO: Iris version: 1.7.2-DEV
06:26:04 INFO: owslib version: 0.8-dev
06:26:04 INFO: pyoos version: 0.6.2
06:26:09 INFO: ********************* Catalog information **********************
06:26:09 INFO: URL: http://www.ngdc.noaa.gov/geoportal/csw
06:26:09 INFO: CSW version: 2.0.2
06:26:09 INFO: Number of datasets available: 37
06:26:09 INFO: ***************************** CSW ******************************
06:26:09 INFO: USF FVCOM - Nowcast Aggregation
06:26:09 INFO: ROMS/TOMS 3.0 - New Floria Shelf Application
06:26:09 INFO: ROMS/TOMS 3.0 - South-Atlantic Bight and Gulf of Mexico
06:26:09 INFO: COAWST Forecast System : USGS : US East Coast and Gulf of Mexico (Experimental)
06:26:09 INFO: Directional wave and sea surface temperature measurements collected in situ by Datawell Mark 3 directional buoy located near MONTEREY CANYON OUTER, CA from 2013/07/11 17:00:00 to 2014/07/01 20:59:59.
06:26:09 INFO: Directional wave and sea surface temperature measurements collected in situ by Datawell Mark 3 directional buoy located near MONTEREY BAY WEST, CA from 2013/06/19 18:00:00 to 2014/07/01 14:59:59.
06:26:09 INFO: Directional wave and sea surface temperature measurements collected in situ by Datawell Mark 3 directional buoy located near MONTEREY BAY WEST, CA from 2014/07/01 19:00:00 to 2014/10/04 23:59:59.
06:26:09 INFO: Directional wave and sea surface temperature measurements collected in situ by Datawell Mark 3 directional buoy located near SAN FRANCISCO BAR, CA from 2013/06/19 22:00:00 to 2014/07/24 14:59:59.
06:26:09 INFO: Directional wave and sea surface temperature measurements collected in situ by Datawell Mark 3 directional buoy located near POINT REYES, CA from 2013/10/16 21:00:00 to 2014/09/05 11:59:59.
06:26:09 INFO: Directional wave and sea surface temperature measurements collected in situ by Datawell Mark 3 directional buoy located near HUMBOLDT BAY NORTH SPIT, CA from 2013/08/26 19:00:00 to 2014/07/24 03:59:59.
06:26:09 INFO: Directional wave and sea surface temperature measurements collected in situ by Datawell Mark 3 directional buoy located near DIABLO CANYON, CA from 2013/08/28 23:00:00 to 2014/10/29 16:59:59.
06:26:09 INFO: Directional wave and sea surface temperature measurements collected in situ by Datawell Mark 3 directional buoy located near CLATSOP SPIT, OR from 2013/07/18 20:00:00 to 2015/01/12 18:59:59.
06:26:09 INFO: Directional wave and sea surface temperature measurements collected in situ by Datawell Mark 3 directional buoy located near ASTORIA CANYON, OR from 2014/01/16 20:00:00 to 2014/09/29 22:59:59.
06:26:09 INFO: Directional wave and sea surface temperature measurements collected in situ by Datawell Waverider buoys located near SAN FRANCISCO BAR, CA from 2007/07/25 to 2014/07/24.
06:26:09 INFO: Directional wave and sea surface temperature measurements collected in situ by Datawell Mark 3 directional buoy located near SANTA CRUZ BASIN, CA from 2013/07/09 15:00:00 to 2014/07/14 16:59:59.
06:26:09 INFO: Directional wave and sea surface temperature measurements collected in situ by Datawell Mark 3 directional buoy located near OCEAN STATION PAPA from 2012/10/04 21:00:00 to 2015/01/01 00:59:59.
06:26:09 INFO: Directional wave and sea surface temperature measurements collected in situ by Datawell Mark 3 directional buoy located near CAMP PENDLETON NEARSHORE, CA from 2014/04/24 22:00:00 to 2014/06/06 16:59:59.
06:26:09 INFO: Directional wave and sea surface temperature measurements collected in situ by Datawell Mark 3 directional buoy located near SAN NICOLAS ISLAND, CA from 2013/04/19 17:00:00 to 2014/06/08 21:59:59.
06:26:09 INFO: Directional wave and sea surface temperature measurements collected in situ by Datawell Mark 3 directional buoy located near TORREY PINES OUTER, CA from 2014/06/10 21:00:00 to 2014/06/12 15:59:59.
06:26:09 INFO: Directional wave and sea surface temperature measurements collected in situ by Datawell Mark 3 directional buoy located near SCRIPPS NEARSHORE, CA from 2013/07/12 20:00:00 to 2015/01/07 17:59:59.
06:26:09 INFO: Directional wave and sea surface temperature measurements collected in situ by Datawell Mark 3 directional buoy located near MISSION BAY OFFSHORE, CA from 2014/04/28 21:00:00 to 2014/06/24 09:59:59.
06:26:09 INFO: Directional wave and sea surface temperature measurements collected in situ by Datawell Waverider buoys located near OCEANSIDE OFFSHORE, CA from 1997/05/19 to 2014/10/14.
06:26:09 INFO: Directional wave and sea surface temperature measurements collected in situ by Datawell Mark 3 directional buoy located near POINT LOMA SOUTH, CA from 2013/08/12 20:00:00 to 2014/09/10 07:59:59.
06:26:09 INFO: Directional wave and sea surface temperature measurements collected in situ by Datawell Waverider buoys located near MOKAPU POINT, HI from 2000/08/09 to 2014/09/10.
06:26:09 INFO: Directional wave and sea surface temperature measurements collected in situ by Datawell Waverider buoys located near TORREY PINES OUTER, CA from 2001/01/30 to 2014/06/06.
06:26:09 INFO: ROMS ESPRESSO Real-Time Operational IS4DVAR Forecast System Version 2 (NEW) 2013-present FMRC History (Best)
06:26:09 INFO: Directional wave and sea surface temperature measurements collected in situ by Datawell Waverider buoys located near SAN NICOLAS ISLAND, CA from 1991/09/10 to 2014/06/08.
06:26:09 INFO: NDBC Standard Meteorological Buoy Data
06:26:09 INFO: Directional wave and sea surface temperature measurements collected in situ by Datawell Waverider buoys located near POINT REYES, CA from 1996/12/06 to 2014/09/05.
06:26:09 INFO: HYbrid Coordinate Ocean Model (HYCOM): Global
06:26:09 INFO: National Data Buoy Center SOS
06:26:09 INFO: G1SST, 1km blended SST
06:26:09 INFO: NOAA Coral Reef Watch Operational Twice-Weekly Near-Real-Time Global 50km Satellite Coral Bleaching Monitoring Products
06:26:09 INFO: Directional wave and sea surface temperature measurements collected in situ by Datawell Mark 3 directional buoy located near MASONBORO INLET, ILM2, NC from 2014/03/14 16:00:00 to 2015/01/06 13:59:59.where the water depth is approximately
06:26:09 INFO: Directional wave and sea surface temperature measurements collected in situ by Datawell Waverider buoys located near MASONBORO INLET, ILM2, NC from 2008/05/07 to 2015/01/06.
06:26:09 INFO: Directional wave and sea surface temperature measurements collected in situ by Datawell Waverider buoys located near NEW RIVER INLET, NC from 2012/04/14 to 2014/07/11.
06:26:09 INFO: Directional wave and sea surface temperature measurements collected in situ by Datawell Mark 3 directional buoy located near NEW RIVER INLET, NC from 2014/03/09 19:00:00 to 2014/07/11 23:59:59.
06:26:09 INFO: ***************************** DAP ******************************
06:26:09 INFO: http://crow.marine.usf.edu:8080/thredds/dodsC/FVCOM-Nowcast-Agg.nc.html
06:26:09 INFO: http://crow.marine.usf.edu:8080/thredds/dodsC/WFS_ROMS_NF_model/USF_Ocean_Circulation_Group_West_Florida_Shelf_Daily_ROMS_Nowcast_Forecast_Model_Data_best.ncd.html
06:26:09 INFO: http://geoport.whoi.edu/thredds/dodsC/coawst_4/use/fmrc/coawst_4_use_best.ncd.html
06:26:09 INFO: http://omgsrv1.meas.ncsu.edu:8080/thredds/dodsC/fmrc/sabgom/SABGOM_Forecast_Model_Run_Collection_best.ncd.html
06:26:09 INFO: http://oos.soest.hawaii.edu/thredds/dodsC/hioos/satellite/dhw.html
06:26:09 INFO: http://oos.soest.hawaii.edu/thredds/dodsC/pacioos/hycom/global.html
06:26:09 INFO: http://tds.marine.rutgers.edu/thredds/dodsC/roms/espresso/2013_da/his_Best/ESPRESSO_Real-Time_v2_History_Best_Available_best.ncd.html
06:26:09 INFO: http://thredds.axiomalaska.com/thredds/dodsC/G1_SST_GLOBAL.nc.html
06:26:09 INFO: http://thredds.cdip.ucsd.edu/thredds/dodsC/cdip/archive/029p1/029p1_d19.nc.html
06:26:09 INFO: http://thredds.cdip.ucsd.edu/thredds/dodsC/cdip/archive/029p1/029p1_historic.nc.html
06:26:09 INFO: http://thredds.cdip.ucsd.edu/thredds/dodsC/cdip/archive/043p1/043p1_d16.nc.html
06:26:09 INFO: http://thredds.cdip.ucsd.edu/thredds/dodsC/cdip/archive/045p1/045p1_historic.nc.html
06:26:09 INFO: http://thredds.cdip.ucsd.edu/thredds/dodsC/cdip/archive/067p1/067p1_d22.nc.html
06:26:09 INFO: http://thredds.cdip.ucsd.edu/thredds/dodsC/cdip/archive/067p1/067p1_historic.nc.html
06:26:09 INFO: http://thredds.cdip.ucsd.edu/thredds/dodsC/cdip/archive/076p1/076p1_d27.nc.html
06:26:09 INFO: http://thredds.cdip.ucsd.edu/thredds/dodsC/cdip/archive/093p1/093p1_d40.nc.html
06:26:09 INFO: http://thredds.cdip.ucsd.edu/thredds/dodsC/cdip/archive/098p1/098p1_historic.nc.html
06:26:09 INFO: http://thredds.cdip.ucsd.edu/thredds/dodsC/cdip/archive/100p1/100p1_d13.nc.html
06:26:09 INFO: http://thredds.cdip.ucsd.edu/thredds/dodsC/cdip/archive/100p1/100p1_historic.nc.html
06:26:09 INFO: http://thredds.cdip.ucsd.edu/thredds/dodsC/cdip/archive/142p1/142p1_d14.nc.html
06:26:09 INFO: http://thredds.cdip.ucsd.edu/thredds/dodsC/cdip/archive/142p1/142p1_historic.nc.html
06:26:09 INFO: http://thredds.cdip.ucsd.edu/thredds/dodsC/cdip/archive/150p1/150p1_d07.nc.html
06:26:09 INFO: http://thredds.cdip.ucsd.edu/thredds/dodsC/cdip/archive/150p1/150p1_historic.nc.html
06:26:09 INFO: http://thredds.cdip.ucsd.edu/thredds/dodsC/cdip/archive/156p1/156p1_d07.nc.html
06:26:09 INFO: http://thredds.cdip.ucsd.edu/thredds/dodsC/cdip/archive/162p1/162p1_d04.nc.html
06:26:09 INFO: http://thredds.cdip.ucsd.edu/thredds/dodsC/cdip/archive/166p1/166p1_d02.nc.html
06:26:09 INFO: http://thredds.cdip.ucsd.edu/thredds/dodsC/cdip/archive/168p1/168p1_d05.nc.html
06:26:09 INFO: http://thredds.cdip.ucsd.edu/thredds/dodsC/cdip/archive/179p1/179p1_d04.nc.html
06:26:09 INFO: http://thredds.cdip.ucsd.edu/thredds/dodsC/cdip/archive/185p1/185p1_d02.nc.html
06:26:09 INFO: http://thredds.cdip.ucsd.edu/thredds/dodsC/cdip/archive/185p1/185p1_d03.nc.html
06:26:09 INFO: http://thredds.cdip.ucsd.edu/thredds/dodsC/cdip/archive/190p1/190p1_d02.nc.html
06:26:09 INFO: http://thredds.cdip.ucsd.edu/thredds/dodsC/cdip/archive/190p1/190p1_historic.nc.html
06:26:09 INFO: http://thredds.cdip.ucsd.edu/thredds/dodsC/cdip/archive/191p1/191p1_d12.nc.html
06:26:09 INFO: http://thredds.cdip.ucsd.edu/thredds/dodsC/cdip/archive/201p1/201p1_d02.nc.html
06:26:09 INFO: http://thredds.cdip.ucsd.edu/thredds/dodsC/cdip/archive/203p1/203p1_d01.nc.html
06:26:09 INFO: ***************************** SOS ******************************
06:26:09 INFO: http://sdf.ndbc.noaa.gov/sos/server.php?service=SOS&request=GetCapabilities&acceptVersions=1.0.0
06:26:09 INFO: http://thredds.cdip.ucsd.edu/thredds/sos/cdip/archive/029p1/029p1_d19.nc?service=SOS&version=1.0.0&request=GetCapabilities
06:26:09 INFO: http://thredds.cdip.ucsd.edu/thredds/sos/cdip/archive/029p1/029p1_historic.nc?service=SOS&version=1.0.0&request=GetCapabilities
06:26:09 INFO: http://thredds.cdip.ucsd.edu/thredds/sos/cdip/archive/043p1/043p1_d16.nc?service=SOS&version=1.0.0&request=GetCapabilities
06:26:09 INFO: http://thredds.cdip.ucsd.edu/thredds/sos/cdip/archive/045p1/045p1_historic.nc?service=SOS&version=1.0.0&request=GetCapabilities
06:26:09 INFO: http://thredds.cdip.ucsd.edu/thredds/sos/cdip/archive/067p1/067p1_d22.nc?service=SOS&version=1.0.0&request=GetCapabilities
06:26:09 INFO: http://thredds.cdip.ucsd.edu/thredds/sos/cdip/archive/067p1/067p1_historic.nc?service=SOS&version=1.0.0&request=GetCapabilities
06:26:09 INFO: http://thredds.cdip.ucsd.edu/thredds/sos/cdip/archive/076p1/076p1_d27.nc?service=SOS&version=1.0.0&request=GetCapabilities
06:26:09 INFO: http://thredds.cdip.ucsd.edu/thredds/sos/cdip/archive/093p1/093p1_d40.nc?service=SOS&version=1.0.0&request=GetCapabilities
06:26:09 INFO: http://thredds.cdip.ucsd.edu/thredds/sos/cdip/archive/098p1/098p1_historic.nc?service=SOS&version=1.0.0&request=GetCapabilities
06:26:09 INFO: http://thredds.cdip.ucsd.edu/thredds/sos/cdip/archive/100p1/100p1_d13.nc?service=SOS&version=1.0.0&request=GetCapabilities
06:26:09 INFO: http://thredds.cdip.ucsd.edu/thredds/sos/cdip/archive/100p1/100p1_historic.nc?service=SOS&version=1.0.0&request=GetCapabilities
06:26:09 INFO: http://thredds.cdip.ucsd.edu/thredds/sos/cdip/archive/142p1/142p1_d14.nc?service=SOS&version=1.0.0&request=GetCapabilities
06:26:09 INFO: http://thredds.cdip.ucsd.edu/thredds/sos/cdip/archive/142p1/142p1_historic.nc?service=SOS&version=1.0.0&request=GetCapabilities
06:26:09 INFO: http://thredds.cdip.ucsd.edu/thredds/sos/cdip/archive/150p1/150p1_d07.nc?service=SOS&version=1.0.0&request=GetCapabilities
06:26:09 INFO: http://thredds.cdip.ucsd.edu/thredds/sos/cdip/archive/150p1/150p1_historic.nc?service=SOS&version=1.0.0&request=GetCapabilities
06:26:09 INFO: http://thredds.cdip.ucsd.edu/thredds/sos/cdip/archive/156p1/156p1_d07.nc?service=SOS&version=1.0.0&request=GetCapabilities
06:26:09 INFO: http://thredds.cdip.ucsd.edu/thredds/sos/cdip/archive/162p1/162p1_d04.nc?service=SOS&version=1.0.0&request=GetCapabilities
06:26:09 INFO: http://thredds.cdip.ucsd.edu/thredds/sos/cdip/archive/166p1/166p1_d02.nc?service=SOS&version=1.0.0&request=GetCapabilities
06:26:09 INFO: http://thredds.cdip.ucsd.edu/thredds/sos/cdip/archive/168p1/168p1_d05.nc?service=SOS&version=1.0.0&request=GetCapabilities
06:26:09 INFO: http://thredds.cdip.ucsd.edu/thredds/sos/cdip/archive/179p1/179p1_d04.nc?service=SOS&version=1.0.0&request=GetCapabilities
06:26:09 INFO: http://thredds.cdip.ucsd.edu/thredds/sos/cdip/archive/185p1/185p1_d02.nc?service=SOS&version=1.0.0&request=GetCapabilities
06:26:09 INFO: http://thredds.cdip.ucsd.edu/thredds/sos/cdip/archive/185p1/185p1_d03.nc?service=SOS&version=1.0.0&request=GetCapabilities
06:26:09 INFO: http://thredds.cdip.ucsd.edu/thredds/sos/cdip/archive/190p1/190p1_d02.nc?service=SOS&version=1.0.0&request=GetCapabilities
06:26:09 INFO: http://thredds.cdip.ucsd.edu/thredds/sos/cdip/archive/190p1/190p1_historic.nc?service=SOS&version=1.0.0&request=GetCapabilities
06:26:09 INFO: http://thredds.cdip.ucsd.edu/thredds/sos/cdip/archive/191p1/191p1_d12.nc?service=SOS&version=1.0.0&request=GetCapabilities
06:26:09 INFO: http://thredds.cdip.ucsd.edu/thredds/sos/cdip/archive/201p1/201p1_d02.nc?service=SOS&version=1.0.0&request=GetCapabilities
06:26:09 INFO: http://thredds.cdip.ucsd.edu/thredds/sos/cdip/archive/203p1/203p1_d01.nc?service=SOS&version=1.0.0&request=GetCapabilities
06:26:09 WARNING: USEAST not in the NGDC csw
06:26:09 WARNING: USF_SWAN not in the NGDC csw
06:26:13 WARNING: /home/filipe/miniconda/envs/SECOORA/lib/python2.7/site-packages/iris/fileformats/_pyke_rules/compiled_krb/fc_rules_cf_fc.py:1359: UserWarning: Failed to create 'time' dimension coordinate: The points array must be strictly monotonic.
Gracefully creating 'time' auxiliary coordinate instead.
  error=e_msg))

06:26:19 WARNING: Cannot get cube for: http://129.252.139.124/thredds/dodsC/usf.nfb.ngwlms.nc
Cube does not contain ['sea_water_temperature', 'sea_surface_temperature', 'sea_water_potential_temperature', 'equivalent_potential_temperature', 'sea_water_conservative_temperature', 'pseudo_equivalent_potential_temperature']
06:26:23 WARNING: Cannot get cube for: http://129.252.139.124/thredds/dodsC/usf.tas.ngwlms.nc
Cube does not contain ['sea_water_temperature', 'sea_surface_temperature', 'sea_water_potential_temperature', 'equivalent_potential_temperature', 'sea_water_conservative_temperature', 'pseudo_equivalent_potential_temperature']
06:26:26 WARNING: Cannot get cube for: http://129.252.139.124/thredds/dodsC/usf.apk.ngwlms.nc
Cube does not contain ['sea_water_temperature', 'sea_surface_temperature', 'sea_water_potential_temperature', 'equivalent_potential_temperature', 'sea_water_conservative_temperature', 'pseudo_equivalent_potential_temperature']
06:26:29 WARNING: Cannot get cube for: http://129.252.139.124/thredds/dodsC/usf.c21.weatherpak.nc
Cube does not contain ['sea_water_temperature', 'sea_surface_temperature', 'sea_water_potential_temperature', 'equivalent_potential_temperature', 'sea_water_conservative_temperature', 'pseudo_equivalent_potential_temperature']
06:26:36 WARNING: Cannot get cube for: http://129.252.139.124/thredds/dodsC/usf.bcp.ngwlms.nc
Cube does not contain ['sea_water_temperature', 'sea_surface_temperature', 'sea_water_potential_temperature', 'equivalent_potential_temperature', 'sea_water_conservative_temperature', 'pseudo_equivalent_potential_temperature']
06:26:40 WARNING: Cannot get cube for: http://129.252.139.124/thredds/dodsC/usf.fhp.ngwlms.nc
Cube does not contain ['sea_water_temperature', 'sea_surface_temperature', 'sea_water_potential_temperature', 'equivalent_potential_temperature', 'sea_water_conservative_temperature', 'pseudo_equivalent_potential_temperature']
06:26:43 WARNING: Cannot get cube for: http://129.252.139.124/thredds/dodsC/usf.c10.mcat.nc
istart must be different from istop! Got istart 48233 and  istop 48233
06:26:45 WARNING: Cannot get cube for: http://129.252.139.124/thredds/dodsC/usf.c12.mcat.nc
istart must be different from istop! Got istart 18711 and  istop 18711
06:26:48 WARNING: Cannot get cube for: http://129.252.139.124/thredds/dodsC/usf.c13.mcat.nc
istart must be different from istop! Got istart 18099 and  istop 18099
06:26:51 WARNING: Cannot get cube for: http://129.252.139.124/thredds/dodsC/usf.c10.mcat_2011.nc
istart must be different from istop! Got istart 26303 and  istop 26303
06:26:54 WARNING: Cannot get cube for: http://129.252.139.124/thredds/dodsC/usf.c12.mcat_2011.nc
istart must be different from istop! Got istart 26303 and  istop 26303
06:26:56 WARNING: Cannot get cube for: http://129.252.139.124/thredds/dodsC/usf.c13.mcat_2011.nc
istart must be different from istop! Got istart 26303 and  istop 26303
06:27:02 WARNING: Cannot get cube for: http://129.252.139.124/thredds/dodsC/carocoops.frp2.buoy.nc
Cube does not contain ['sea_water_temperature', 'sea_surface_temperature', 'sea_water_potential_temperature', 'equivalent_potential_temperature', 'sea_water_conservative_temperature', 'pseudo_equivalent_potential_temperature']
06:27:06 WARNING: Cannot get cube for: http://129.252.139.124/thredds/dodsC/carocoops.cap2.buoy.nc
Cube does not contain ['sea_water_temperature', 'sea_surface_temperature', 'sea_water_potential_temperature', 'equivalent_potential_temperature', 'sea_water_conservative_temperature', 'pseudo_equivalent_potential_temperature']
06:27:19 WARNING: Cannot get cube for: http://129.252.139.124/thredds/dodsC/cormp.ilm1.buoy.nc
istart must be different from istop! Got istart 1443 and  istop 1443
06:27:22 WARNING: Cannot get cube for: http://129.252.139.124/thredds/dodsC/cormp.lej3.buoy.nc
istart must be different from istop! Got istart 91490 and  istop 91490
06:27:24 WARNING: /home/filipe/miniconda/envs/SECOORA/lib/python2.7/site-packages/iris/fileformats/_pyke_rules/compiled_krb/fc_rules_cf_fc.py:1196: UserWarning: Ignoring netCDF variable 'dissolved_oxygen_saturation' invalid units 'mg_L-1'
  warnings.warn(msg.format(msg_name, msg_units))

06:27:25 WARNING: /home/filipe/miniconda/envs/SECOORA/lib/python2.7/site-packages/iris/fileformats/_pyke_rules/compiled_krb/fc_rules_cf_fc.py:1196: UserWarning: Ignoring netCDF variable 'dissolved_oxygen' invalid units 'mg_L-1'
  warnings.warn(msg.format(msg_name, msg_units))

06:27:25 WARNING: /home/filipe/miniconda/envs/SECOORA/lib/python2.7/site-packages/iris/fileformats/_pyke_rules/compiled_krb/fc_rules_cf_fc.py:1196: UserWarning: Ignoring netCDF variable 'cdom' invalid units 'QSDE'
  warnings.warn(msg.format(msg_name, msg_units))

06:27:26 WARNING: /home/filipe/miniconda/envs/SECOORA/lib/python2.7/site-packages/iris/fileformats/_pyke_rules/compiled_krb/fc_rules_cf_fc.py:1196: UserWarning: Ignoring netCDF variable 'turbidity' invalid units 'ntu'
  warnings.warn(msg.format(msg_name, msg_units))

06:27:26 WARNING: /home/filipe/miniconda/envs/SECOORA/lib/python2.7/site-packages/iris/fileformats/_pyke_rules/compiled_krb/fc_rules_cf_fc.py:1196: UserWarning: Ignoring netCDF variable 'conductivity' invalid units 'mS_cm-1'
  warnings.warn(msg.format(msg_name, msg_units))

06:27:28 WARNING: /home/filipe/miniconda/envs/SECOORA/lib/python2.7/site-packages/iris/fileformats/_pyke_rules/compiled_krb/fc_rules_cf_fc.py:1196: UserWarning: Ignoring netCDF variable 'nitrate' invalid units 'uM'
  warnings.warn(msg.format(msg_name, msg_units))

06:27:44 WARNING: /home/filipe/miniconda/envs/SECOORA/lib/python2.7/site-packages/iris/fileformats/_pyke_rules/compiled_krb/fc_rules_cf_fc.py:1196: UserWarning: Ignoring netCDF variable 'conductivity_2' invalid units 'mS_cm-1'
  warnings.warn(msg.format(msg_name, msg_units))

06:27:49 WARNING: Cannot get cube for: http://129.252.139.124/thredds/dodsC/fldep.poncedeleonsouth..nc
Cube does not contain ['sea_water_temperature', 'sea_surface_temperature', 'sea_water_potential_temperature', 'equivalent_potential_temperature', 'sea_water_conservative_temperature', 'pseudo_equivalent_potential_temperature']
06:27:55 WARNING: Cannot get cube for: http://129.252.139.124/thredds/dodsC/fldep.redbaypoint..nc
Cube does not contain ['sea_water_temperature', 'sea_surface_temperature', 'sea_water_potential_temperature', 'equivalent_potential_temperature', 'sea_water_conservative_temperature', 'pseudo_equivalent_potential_temperature']
06:28:03 WARNING: Cannot get cube for: http://129.252.139.124/thredds/dodsC/fldep.naplesbay..nc
Cube does not contain ['sea_water_temperature', 'sea_surface_temperature', 'sea_water_potential_temperature', 'equivalent_potential_temperature', 'sea_water_conservative_temperature', 'pseudo_equivalent_potential_temperature']
06:28:08 WARNING: Cannot get cube for: http://129.252.139.124/thredds/dodsC/fldep.gordonriverinlet..nc
Cube does not contain ['sea_water_temperature', 'sea_surface_temperature', 'sea_water_potential_temperature', 'equivalent_potential_temperature', 'sea_water_conservative_temperature', 'pseudo_equivalent_potential_temperature']
06:28:11 WARNING: Cannot get cube for: http://129.252.139.124/thredds/dodsC/fldep.melbourne..nc
Cube does not contain ['sea_water_temperature', 'sea_surface_temperature', 'sea_water_potential_temperature', 'equivalent_potential_temperature', 'sea_water_conservative_temperature', 'pseudo_equivalent_potential_temperature']
06:28:16 WARNING: Cannot get cube for: http://129.252.139.124/thredds/dodsC/fldep.binneydock..nc
Cube does not contain ['sea_water_temperature', 'sea_surface_temperature', 'sea_water_potential_temperature', 'equivalent_potential_temperature', 'sea_water_conservative_temperature', 'pseudo_equivalent_potential_temperature']
06:28:19 WARNING: Cannot get cube for: http://129.252.139.124/thredds/dodsC/fldep.verobeach..nc
Cube does not contain ['sea_water_temperature', 'sea_surface_temperature', 'sea_water_potential_temperature', 'equivalent_potential_temperature', 'sea_water_conservative_temperature', 'pseudo_equivalent_potential_temperature']
06:28:23 WARNING: Cannot get cube for: http://129.252.139.124/thredds/dodsC/lbhmc.2ndave.pier.nc
Cube does not contain ['sea_water_temperature', 'sea_surface_temperature', 'sea_water_potential_temperature', 'equivalent_potential_temperature', 'sea_water_conservative_temperature', 'pseudo_equivalent_potential_temperature']
06:28:27 WARNING: /home/filipe/miniconda/envs/SECOORA/lib/python2.7/site-packages/iris/fileformats/_pyke_rules/compiled_krb/fc_rules_cf_fc.py:1196: UserWarning: Ignoring netCDF variable 'turbidity_2' invalid units 'ntu'
  warnings.warn(msg.format(msg_name, msg_units))

06:28:27 WARNING: /home/filipe/miniconda/envs/SECOORA/lib/python2.7/site-packages/iris/fileformats/_pyke_rules/compiled_krb/fc_rules_cf_fc.py:1196: UserWarning: Ignoring netCDF variable 'dissolved_oxygen_2' invalid units 'mg_L-1'
  warnings.warn(msg.format(msg_name, msg_units))

06:29:16 WARNING: Cannot get cube for: http://129.252.139.124/thredds/dodsC/enp.ppta1.met.nc
Cube does not contain ['sea_water_temperature', 'sea_surface_temperature', 'sea_water_potential_temperature', 'equivalent_potential_temperature', 'sea_water_conservative_temperature', 'pseudo_equivalent_potential_temperature']
06:29:54 WARNING: /home/filipe/miniconda/envs/SECOORA/lib/python2.7/site-packages/iris/fileformats/_pyke_rules/compiled_krb/fc_rules_cf_fc.py:1196: UserWarning: Ignoring netCDF variable 'phosphate' invalid units 'uM'
  warnings.warn(msg.format(msg_name, msg_units))

06:29:54 WARNING: /home/filipe/miniconda/envs/SECOORA/lib/python2.7/site-packages/iris/fileformats/_pyke_rules/compiled_krb/fc_rules_cf_fc.py:1196: UserWarning: Ignoring netCDF variable 'photosynthetically_available_radiation' invalid units 'micromoles_per_m^2'
  warnings.warn(msg.format(msg_name, msg_units))

06:30:06 INFO: ********************* Collector offerings **********************
06:30:06 INFO: NOAA.NOS.CO-OPS SOS: 1030 offerings
06:30:08 INFO: SOS URL request: http://opendap.co-ops.nos.noaa.gov/ioos-dif-sos/SOS?eventTime=2014-06-30T12%3A00%3A00Z&service=SOS&offering=urn%3Aioos%3Anetwork%3ANOAA.NOS.CO-OPS%3AMetActive&request=GetObservation&version=1.0.0&responseFormat=text%2Fcsv&featureOfInterest=BBOX%3A-87.4%2C24.25%2C-74.7%2C36.7&observedProperty=sea_water_temperature
06:32:43 INFO: ************************* Observations *************************
06:32:43 INFO: **** Downloading to file 2014-07-07/2014-07-07-OBS_DATA.nc *****
06:34:31 INFO: ********************* SECOORA Observations *********************
06:34:31 INFO:  Downloading to file 2014-07-07/2014-07-07-SECOORA_OBS_DATA.nc *
06:34:31 INFO: **************************** Models ****************************
06:34:31 INFO: 
[Reading url 1/37]: http://crow.marine.usf.edu:8080/thredds/dodsC/FVCOM-Nowcast-Agg.nc
06:34:31 WARNING: Cannot get cube for: http://crow.marine.usf.edu:8080/thredds/dodsC/FVCOM-Nowcast-Agg.nc
NetCDF: I/O failure
06:34:31 INFO: 
[Reading url 2/37]: http://crow.marine.usf.edu:8080/thredds/dodsC/WFS_ROMS_NF_model/USF_Ocean_Circulation_Group_West_Florida_Shelf_Daily_ROMS_Nowcast_Forecast_Model_Data_best.ncd
06:34:31 WARNING: Cannot get cube for: http://crow.marine.usf.edu:8080/thredds/dodsC/WFS_ROMS_NF_model/USF_Ocean_Circulation_Group_West_Florida_Shelf_Daily_ROMS_Nowcast_Forecast_Model_Data_best.ncd
NetCDF: I/O failure
06:34:31 INFO: 
[Reading url 3/37]: http://geoport.whoi.edu/thredds/dodsC/coawst_4/use/fmrc/coawst_4_use_best.ncd
06:34:56 INFO: 
[Reading url 4/37]: http://omgsrv1.meas.ncsu.edu:8080/thredds/dodsC/fmrc/sabgom/SABGOM_Forecast_Model_Run_Collection_best.ncd
06:35:04 WARNING: Cannot get cube for: http://omgsrv1.meas.ncsu.edu:8080/thredds/dodsC/fmrc/sabgom/SABGOM_Forecast_Model_Run_Collection_best.ncd
istart must be different from istop! Got istart 0 and  istop 0
06:35:04 INFO: 
[Reading url 5/37]: http://oos.soest.hawaii.edu/thredds/dodsC/hioos/satellite/dhw
06:35:08 INFO: 
[Reading url 6/37]: http://oos.soest.hawaii.edu/thredds/dodsC/pacioos/hycom/global
06:35:11 INFO: 
[Reading url 7/37]: http://tds.marine.rutgers.edu/thredds/dodsC/roms/espresso/2013_da/his_Best/ESPRESSO_Real-Time_v2_History_Best_Available_best.ncd
06:35:19 INFO: 
[Reading url 8/37]: http://thredds.axiomalaska.com/thredds/dodsC/G1_SST_GLOBAL.nc
06:36:45 INFO: 
[Reading url 9/37]: http://thredds.cdip.ucsd.edu/thredds/dodsC/cdip/archive/029p1/029p1_d19.nc
06:36:48 WARNING: Cannot get cube for: http://thredds.cdip.ucsd.edu/thredds/dodsC/cdip/archive/029p1/029p1_d19.nc
No cube using [-87.4, 24.25, -74.7, 36.7]
06:36:48 INFO: 
[Reading url 10/37]: http://thredds.cdip.ucsd.edu/thredds/dodsC/cdip/archive/029p1/029p1_historic.nc
06:36:59 WARNING: Cannot get cube for: http://thredds.cdip.ucsd.edu/thredds/dodsC/cdip/archive/029p1/029p1_historic.nc
No cube using [-87.4, 24.25, -74.7, 36.7]
06:36:59 INFO: 
[Reading url 11/37]: http://thredds.cdip.ucsd.edu/thredds/dodsC/cdip/archive/043p1/043p1_d16.nc
06:37:02 WARNING: Cannot get cube for: http://thredds.cdip.ucsd.edu/thredds/dodsC/cdip/archive/043p1/043p1_d16.nc
No cube using [-87.4, 24.25, -74.7, 36.7]
06:37:02 INFO: 
[Reading url 12/37]: http://thredds.cdip.ucsd.edu/thredds/dodsC/cdip/archive/045p1/045p1_historic.nc
06:37:14 WARNING: Cannot get cube for: http://thredds.cdip.ucsd.edu/thredds/dodsC/cdip/archive/045p1/045p1_historic.nc
No cube using [-87.4, 24.25, -74.7, 36.7]
06:37:14 INFO: 
[Reading url 13/37]: http://thredds.cdip.ucsd.edu/thredds/dodsC/cdip/archive/067p1/067p1_d22.nc
06:37:16 WARNING: Cannot get cube for: http://thredds.cdip.ucsd.edu/thredds/dodsC/cdip/archive/067p1/067p1_d22.nc
No cube using [-87.4, 24.25, -74.7, 36.7]
06:37:16 INFO: 
[Reading url 14/37]: http://thredds.cdip.ucsd.edu/thredds/dodsC/cdip/archive/067p1/067p1_historic.nc
06:37:28 WARNING: Cannot get cube for: http://thredds.cdip.ucsd.edu/thredds/dodsC/cdip/archive/067p1/067p1_historic.nc
No cube using [-87.4, 24.25, -74.7, 36.7]
06:37:28 INFO: 
[Reading url 15/37]: http://thredds.cdip.ucsd.edu/thredds/dodsC/cdip/archive/076p1/076p1_d27.nc
06:37:31 WARNING: Cannot get cube for: http://thredds.cdip.ucsd.edu/thredds/dodsC/cdip/archive/076p1/076p1_d27.nc
No cube using [-87.4, 24.25, -74.7, 36.7]
06:37:31 INFO: 
[Reading url 16/37]: http://thredds.cdip.ucsd.edu/thredds/dodsC/cdip/archive/093p1/093p1_d40.nc
06:37:33 WARNING: Cannot get cube for: http://thredds.cdip.ucsd.edu/thredds/dodsC/cdip/archive/093p1/093p1_d40.nc
No cube using [-87.4, 24.25, -74.7, 36.7]
06:37:33 INFO: 
[Reading url 17/37]: http://thredds.cdip.ucsd.edu/thredds/dodsC/cdip/archive/098p1/098p1_historic.nc
06:37:52 WARNING: Cannot get cube for: http://thredds.cdip.ucsd.edu/thredds/dodsC/cdip/archive/098p1/098p1_historic.nc
No cube using [-87.4, 24.25, -74.7, 36.7]
06:37:52 INFO: 
[Reading url 18/37]: http://thredds.cdip.ucsd.edu/thredds/dodsC/cdip/archive/100p1/100p1_d13.nc
06:37:53 WARNING: Cannot get cube for: http://thredds.cdip.ucsd.edu/thredds/dodsC/cdip/archive/100p1/100p1_d13.nc
No cube using [-87.4, 24.25, -74.7, 36.7]
06:37:53 INFO: 
[Reading url 19/37]: http://thredds.cdip.ucsd.edu/thredds/dodsC/cdip/archive/100p1/100p1_historic.nc
06:38:11 WARNING: Cannot get cube for: http://thredds.cdip.ucsd.edu/thredds/dodsC/cdip/archive/100p1/100p1_historic.nc
No cube using [-87.4, 24.25, -74.7, 36.7]
06:38:11 INFO: 
[Reading url 20/37]: http://thredds.cdip.ucsd.edu/thredds/dodsC/cdip/archive/142p1/142p1_d14.nc
06:38:14 WARNING: Cannot get cube for: http://thredds.cdip.ucsd.edu/thredds/dodsC/cdip/archive/142p1/142p1_d14.nc
No cube using [-87.4, 24.25, -74.7, 36.7]
06:38:14 INFO: 
[Reading url 21/37]: http://thredds.cdip.ucsd.edu/thredds/dodsC/cdip/archive/142p1/142p1_historic.nc
06:38:20 WARNING: Cannot get cube for: http://thredds.cdip.ucsd.edu/thredds/dodsC/cdip/archive/142p1/142p1_historic.nc
No cube using [-87.4, 24.25, -74.7, 36.7]
06:38:20 INFO: 
[Reading url 22/37]: http://thredds.cdip.ucsd.edu/thredds/dodsC/cdip/archive/150p1/150p1_d07.nc
06:38:22 WARNING: url http://thredds.cdip.ucsd.edu/thredds/dodsC/cdip/archive/150p1/150p1_d07.nc is probably a timeSeries!
06:38:22 INFO: 
[Reading url 23/37]: http://thredds.cdip.ucsd.edu/thredds/dodsC/cdip/archive/150p1/150p1_historic.nc
06:38:28 WARNING: url http://thredds.cdip.ucsd.edu/thredds/dodsC/cdip/archive/150p1/150p1_historic.nc is probably a timeSeries!
06:38:28 INFO: 
[Reading url 24/37]: http://thredds.cdip.ucsd.edu/thredds/dodsC/cdip/archive/156p1/156p1_d07.nc
06:38:31 WARNING: Cannot get cube for: http://thredds.cdip.ucsd.edu/thredds/dodsC/cdip/archive/156p1/156p1_d07.nc
No cube using [-87.4, 24.25, -74.7, 36.7]
06:38:31 INFO: 
[Reading url 25/37]: http://thredds.cdip.ucsd.edu/thredds/dodsC/cdip/archive/162p1/162p1_d04.nc
06:38:38 WARNING: Cannot get cube for: http://thredds.cdip.ucsd.edu/thredds/dodsC/cdip/archive/162p1/162p1_d04.nc
No cube using [-87.4, 24.25, -74.7, 36.7]
06:38:38 INFO: 
[Reading url 26/37]: http://thredds.cdip.ucsd.edu/thredds/dodsC/cdip/archive/166p1/166p1_d02.nc
06:38:44 WARNING: Cannot get cube for: http://thredds.cdip.ucsd.edu/thredds/dodsC/cdip/archive/166p1/166p1_d02.nc
No cube using [-87.4, 24.25, -74.7, 36.7]
06:38:44 INFO: 
[Reading url 27/37]: http://thredds.cdip.ucsd.edu/thredds/dodsC/cdip/archive/168p1/168p1_d05.nc
06:38:47 WARNING: Cannot get cube for: http://thredds.cdip.ucsd.edu/thredds/dodsC/cdip/archive/168p1/168p1_d05.nc
No cube using [-87.4, 24.25, -74.7, 36.7]
06:38:47 INFO: 
[Reading url 28/37]: http://thredds.cdip.ucsd.edu/thredds/dodsC/cdip/archive/179p1/179p1_d04.nc
06:38:50 WARNING: Cannot get cube for: http://thredds.cdip.ucsd.edu/thredds/dodsC/cdip/archive/179p1/179p1_d04.nc
No cube using [-87.4, 24.25, -74.7, 36.7]
06:38:50 INFO: 
[Reading url 29/37]: http://thredds.cdip.ucsd.edu/thredds/dodsC/cdip/archive/185p1/185p1_d02.nc
06:38:53 WARNING: Cannot get cube for: http://thredds.cdip.ucsd.edu/thredds/dodsC/cdip/archive/185p1/185p1_d02.nc
No cube using [-87.4, 24.25, -74.7, 36.7]
06:38:53 INFO: 
[Reading url 30/37]: http://thredds.cdip.ucsd.edu/thredds/dodsC/cdip/archive/185p1/185p1_d03.nc
06:38:55 WARNING: Cannot get cube for: http://thredds.cdip.ucsd.edu/thredds/dodsC/cdip/archive/185p1/185p1_d03.nc
No cube using [-87.4, 24.25, -74.7, 36.7]
06:38:55 INFO: 
[Reading url 31/37]: http://thredds.cdip.ucsd.edu/thredds/dodsC/cdip/archive/190p1/190p1_d02.nc
06:38:58 WARNING: url http://thredds.cdip.ucsd.edu/thredds/dodsC/cdip/archive/190p1/190p1_d02.nc is probably a timeSeries!
06:38:58 INFO: 
[Reading url 32/37]: http://thredds.cdip.ucsd.edu/thredds/dodsC/cdip/archive/190p1/190p1_historic.nc
06:39:06 WARNING: url http://thredds.cdip.ucsd.edu/thredds/dodsC/cdip/archive/190p1/190p1_historic.nc is probably a timeSeries!
06:39:06 INFO: 
[Reading url 33/37]: http://thredds.cdip.ucsd.edu/thredds/dodsC/cdip/archive/191p1/191p1_d12.nc
06:39:09 WARNING: Cannot get cube for: http://thredds.cdip.ucsd.edu/thredds/dodsC/cdip/archive/191p1/191p1_d12.nc
No cube using [-87.4, 24.25, -74.7, 36.7]
06:39:09 INFO: 
[Reading url 34/37]: http://thredds.cdip.ucsd.edu/thredds/dodsC/cdip/archive/201p1/201p1_d02.nc
06:39:17 WARNING: Cannot get cube for: http://thredds.cdip.ucsd.edu/thredds/dodsC/cdip/archive/201p1/201p1_d02.nc
No cube using [-87.4, 24.25, -74.7, 36.7]
06:39:17 INFO: 
[Reading url 35/37]: http://thredds.cdip.ucsd.edu/thredds/dodsC/cdip/archive/203p1/203p1_d01.nc
06:39:20 WARNING: Cannot get cube for: http://thredds.cdip.ucsd.edu/thredds/dodsC/cdip/archive/203p1/203p1_d01.nc
No cube using [-87.4, 24.25, -74.7, 36.7]
06:39:20 INFO: 
[Reading url 36/37]: http://omgsrv1.meas.ncsu.edu:8080/thredds/dodsC/fmrc/us_east/US_East_Forecast_Model_Run_Collection_best.ncd
06:39:40 WARNING: Cannot get cube for: http://omgsrv1.meas.ncsu.edu:8080/thredds/dodsC/fmrc/us_east/US_East_Forecast_Model_Run_Collection_best.ncd
istart must be different from istop! Got istart 0 and  istop 0
06:39:40 INFO: 
[Reading url 37/37]: http://crow.marine.usf.edu:8080/thredds/dodsC/WFS_SWAN_NF_model/USF_Ocean_Circulation_Group_West_Florida_Shelf_Daily_SWAN_Nowcast_Forecast_Wave_Model_Data_best.ncd
06:39:40 WARNING: Cannot get cube for: http://crow.marine.usf.edu:8080/thredds/dodsC/WFS_SWAN_NF_model/USF_Ocean_Circulation_Group_West_Florida_Shelf_Daily_SWAN_Nowcast_Forecast_Wave_Model_Data_best.ncd
NetCDF: I/O failure
06:39:40 INFO: **** Downloading to file 2014-07-07/2014-07-07-COAWST_4.nc *****
06:39:50 INFO: [Land   ] Duck, NC
06:40:03 INFO: [Water  ] Oregon Inlet Marina, NC
06:40:09 INFO: [Water  ] USCG Station Hatteras, NC
06:40:21 INFO: [Land   ] Beaufort, NC
06:40:27 INFO: [Land   ] Wilmington, NC
06:40:33 INFO: [Water  ] Wrightsville Beach, NC
06:40:45 INFO: [Water  ] Springmaid Pier, SC
06:40:52 INFO: [Land   ] Charleston, SC
06:40:58 INFO: [Land   ] Fort Pulaski, GA
06:41:05 INFO: [Land   ] Fernandina Beach, FL
06:41:12 INFO: [Land   ] Mayport (Bar Pilots Dock), FL
06:41:18 INFO: [Land   ] Dames Point, FL
06:41:25 INFO: [Land   ] Jacksonville University, FL
06:41:32 INFO: [Land   ] I-295 Bridge, St Johns River, FL
06:41:39 INFO: [Land   ] Red Bay Point, St Johns River, FL
06:41:47 INFO: [Land   ] Racy Point, St Johns River, FL
06:41:53 INFO: [Land   ] Trident Pier, FL
06:42:06 INFO: [Water  ] Lake Worth Pier, FL
06:42:13 INFO: [Land   ] Vaca Key, FL
06:42:27 INFO: [Water  ] Key West, FL
06:42:34 INFO: [Land   ] Naples, FL
06:42:41 INFO: [Land   ] Fort Myers, FL
06:42:48 INFO: [Land   ] Port Manatee, FL
06:42:55 INFO: [Land   ] St Petersburg, FL
06:43:09 INFO: [Water  ] Old Port Tampa, FL
06:43:16 INFO: [Water  ] Apalachicola, FL
06:43:22 INFO: [Water  ] Panama City, FL
06:43:36 INFO: [Land   ] Panama City Beach, FL
06:43:42 INFO: [Water  ] Pensacola, FL
06:43:48 INFO: [Land   ] Tolomato River station
06:43:55 INFO: [Water  ] Duck Key, FL
06:44:02 INFO: [Land   ] Broad River Lower, FL
06:44:08 INFO: [Land   ] Cherry Grove Pier, N. Myrtle Beach, SC
06:44:22 INFO: [Water  ] Gulf of Mexico station
06:44:29 INFO: [Land   ] Shell Point
06:44:36 INFO: [Land   ] Taylor River, FL
06:44:49 INFO: [Water  ] Redfish Pass station
06:44:56 INFO: [Water  ] Little Rabbit Key, FL
06:45:03 INFO: [Water  ] Peterson Key, FL
06:45:10 INFO: [Land   ] Fort Myers station
06:45:16 INFO: [Land   ] Highway Creek, FL
06:45:29 INFO: [Water  ] CORMP ILM2, Wrightsville Beach Nearshore, NC
06:45:36 INFO: [Water  ] Clear Water Pass, FL 
06:45:42 INFO: [Water  ] Tarpon Bay station
06:45:49 INFO: [Land   ] Gunboat Island, FL
06:45:55 INFO: [Land   ] Cannon Bay, FL
06:46:03 INFO: [Water  ] Murray Key, FL
06:46:10 INFO: [Land   ] Blackwater Sound, FL
06:46:24 INFO: [Water  ] Butternut Key, FL
06:46:37 INFO: [Land   ] Shell Point station
06:46:56 INFO: [Water  ] Whipray Basin, FL
06:47:11 INFO: [Land   ] Apache Pier, Myrtle Beach, SC
06:47:21 INFO: [Water  ] Garfield Bight, FL
06:47:28 INFO: [Land   ] Lane River, FL 
06:47:34 INFO: [Land   ] Little Blackwater, FL
06:47:41 INFO: [Water  ] Little Madeira, FL
06:47:56 INFO: [Water  ] St Lucie Inlet station
06:48:03 INFO: [Water  ] White Water -West, FL
06:48:10 INFO: [Land   ] fau_lobo_1
06:48:17 INFO: [Water  ] CORMP ILM3, Wrightsville Beach Offshore, NC
06:48:24 INFO: [Land   ] Broad River, FL
06:48:31 INFO: [Land   ] Willy Willy, FL
06:48:38 INFO: [Land   ] Cane Patch, FL
06:48:45 INFO: [Water  ] Sebastian Inlet met station
06:48:51 INFO: [Water  ] CAROCOOPS SUN2, Sunset Nearshore, NC
06:48:58 INFO: [Land   ] Bing&#39;s Landing station
06:49:05 INFO: [Water  ] Bob Allen, FL
06:49:12 INFO: [Land   ] Trout Cove, FL
06:49:20 INFO: [Water  ] Johnson Key, FL
06:57:17 INFO: Finished processing [COAWST_4]: http://crow.marine.usf.edu:8080/thredds/dodsC/WFS_SWAN_NF_model/USF_Ocean_Circulation_Group_West_Florida_Shelf_Daily_SWAN_Nowcast_Forecast_Wave_Model_Data_best.ncd

06:57:17 INFO: **** Downloading to file 2014-07-07/2014-07-07-ESPRESSO.nc *****
06:57:22 INFO: [Land   ] Duck, NC
06:57:27 INFO: [Water  ] Oregon Inlet Marina, NC
06:57:32 INFO: [Land   ] USCG Station Hatteras, NC
06:57:37 INFO: [Water  ] Beaufort, NC
06:57:37 INFO: [No Data] Wilmington, NC
06:57:37 INFO: [No Data] Wrightsville Beach, NC
06:57:37 INFO: [No Data] Springmaid Pier, SC
06:57:37 INFO: [No Data] Charleston, SC
06:57:37 INFO: [No Data] Fort Pulaski, GA
06:57:37 INFO: [No Data] Fernandina Beach, FL
06:57:37 INFO: [No Data] Mayport (Bar Pilots Dock), FL
06:57:37 INFO: [No Data] Dames Point, FL
06:57:37 INFO: [No Data] Jacksonville University, FL
06:57:37 INFO: [No Data] I-295 Bridge, St Johns River, FL
06:57:37 INFO: [No Data] Red Bay Point, St Johns River, FL
06:57:37 INFO: [No Data] Racy Point, St Johns River, FL
06:57:37 INFO: [No Data] Trident Pier, FL
06:57:37 INFO: [No Data] Lake Worth Pier, FL
06:57:37 INFO: [No Data] Vaca Key, FL
06:57:37 INFO: [No Data] Key West, FL
06:57:37 INFO: [No Data] Naples, FL
06:57:37 INFO: [No Data] Fort Myers, FL
06:57:37 INFO: [No Data] Port Manatee, FL
06:57:37 INFO: [No Data] St Petersburg, FL
06:57:37 INFO: [No Data] Old Port Tampa, FL
06:57:37 INFO: [No Data] Apalachicola, FL
06:57:37 INFO: [No Data] Panama City, FL
06:57:37 INFO: [No Data] Panama City Beach, FL
06:57:37 INFO: [No Data] Pensacola, FL
06:57:37 INFO: [No Data] Tolomato River station
06:57:37 INFO: [No Data] Duck Key, FL
06:57:37 INFO: [No Data] Broad River Lower, FL
06:57:37 INFO: [No Data] Cherry Grove Pier, N. Myrtle Beach, SC
06:57:37 INFO: [No Data] Gulf of Mexico station
06:57:37 INFO: [No Data] Shell Point
06:57:37 INFO: [No Data] Taylor River, FL
06:57:37 INFO: [No Data] Redfish Pass station
06:57:37 INFO: [No Data] Little Rabbit Key, FL
06:57:37 INFO: [No Data] Peterson Key, FL
06:57:37 INFO: [No Data] Fort Myers station
06:57:37 INFO: [No Data] Highway Creek, FL
06:57:37 INFO: [No Data] CORMP ILM2, Wrightsville Beach Nearshore, NC
06:57:37 INFO: [No Data] Clear Water Pass, FL 
06:57:37 INFO: [No Data] Tarpon Bay station
06:57:37 INFO: [No Data] Gunboat Island, FL
06:57:37 INFO: [No Data] Cannon Bay, FL
06:57:37 INFO: [No Data] Murray Key, FL
06:57:37 INFO: [No Data] Blackwater Sound, FL
06:57:37 INFO: [No Data] Butternut Key, FL
06:57:37 INFO: [No Data] Shell Point station
06:57:37 INFO: [No Data] Whipray Basin, FL
06:57:37 INFO: [No Data] Apache Pier, Myrtle Beach, SC
06:57:37 INFO: [No Data] Garfield Bight, FL
06:57:37 INFO: [No Data] Lane River, FL 
06:57:37 INFO: [No Data] Little Blackwater, FL
06:57:37 INFO: [No Data] Little Madeira, FL
06:57:37 INFO: [No Data] St Lucie Inlet station
06:57:37 INFO: [No Data] White Water -West, FL
06:57:37 INFO: [No Data] fau_lobo_1
06:57:37 INFO: [No Data] CORMP ILM3, Wrightsville Beach Offshore, NC
06:57:37 INFO: [No Data] Broad River, FL
06:57:37 INFO: [No Data] Willy Willy, FL
06:57:37 INFO: [No Data] Cane Patch, FL
06:57:37 INFO: [No Data] Sebastian Inlet met station
06:57:37 INFO: [No Data] CAROCOOPS SUN2, Sunset Nearshore, NC
06:57:37 INFO: [No Data] Bing&#39;s Landing station
06:57:37 INFO: [No Data] Bob Allen, FL
06:57:37 INFO: [No Data] Trout Cove, FL
06:57:37 INFO: [No Data] Johnson Key, FL
06:57:47 INFO: Finished processing [ESPRESSO]: http://crow.marine.usf.edu:8080/thredds/dodsC/WFS_SWAN_NF_model/USF_Ocean_Circulation_Group_West_Florida_Shelf_Daily_SWAN_Nowcast_Forecast_Wave_Model_Data_best.ncd

06:57:47 INFO: ****** Downloading to file 2014-07-07/2014-07-07-HYCOM.nc ******
06:57:50 INFO: [Land   ] Duck, NC
06:57:52 INFO: [Water  ] Oregon Inlet Marina, NC
06:57:54 INFO: [Land   ] USCG Station Hatteras, NC
06:57:56 INFO: [Land   ] Beaufort, NC
06:57:59 INFO: [Land   ] Wilmington, NC
06:58:01 INFO: [Water  ] Wrightsville Beach, NC
06:58:01 INFO: [No Data] Springmaid Pier, SC
06:58:03 INFO: [Land   ] Charleston, SC
06:58:06 INFO: [Land   ] Fort Pulaski, GA
06:58:08 INFO: [Land   ] Fernandina Beach, FL
06:58:10 INFO: [Land   ] Mayport (Bar Pilots Dock), FL
06:58:13 INFO: [Land   ] Dames Point, FL
06:58:15 INFO: [Land   ] Jacksonville University, FL
06:58:18 INFO: [Land   ] I-295 Bridge, St Johns River, FL
06:58:20 INFO: [Land   ] Red Bay Point, St Johns River, FL
06:58:20 INFO: [No Data] Racy Point, St Johns River, FL
06:58:23 INFO: [Land   ] Trident Pier, FL
06:58:25 INFO: [Water  ] Lake Worth Pier, FL
06:58:28 INFO: [Land   ] Vaca Key, FL
06:58:30 INFO: [Land   ] Key West, FL
06:58:30 INFO: [No Data] Naples, FL
06:58:32 INFO: [Land   ] Fort Myers, FL
06:58:34 INFO: [Land   ] Port Manatee, FL
06:58:37 INFO: [Land   ] St Petersburg, FL
06:58:39 INFO: [Land   ] Old Port Tampa, FL
06:58:42 INFO: [Land   ] Apalachicola, FL
06:58:44 INFO: [Land   ] Panama City, FL
06:58:44 INFO: [No Data] Panama City Beach, FL
06:58:46 INFO: [Land   ] Pensacola, FL
06:58:48 INFO: [Land   ] Tolomato River station
06:58:51 INFO: [Land   ] Duck Key, FL
06:58:53 INFO: [Land   ] Broad River Lower, FL
06:58:56 INFO: [Land   ] Cherry Grove Pier, N. Myrtle Beach, SC
06:58:58 INFO: [Land   ] Gulf of Mexico station
06:59:01 INFO: [Land   ] Shell Point
06:59:03 INFO: [Land   ] Taylor River, FL
06:59:05 INFO: [Land   ] Redfish Pass station
06:59:08 INFO: [Land   ] Little Rabbit Key, FL
06:59:10 INFO: [Land   ] Peterson Key, FL
06:59:10 INFO: [No Data] Fort Myers station
06:59:10 INFO: [No Data] Highway Creek, FL
06:59:10 INFO: [No Data] CORMP ILM2, Wrightsville Beach Nearshore, NC
06:59:12 INFO: [Land   ] Clear Water Pass, FL 
06:59:15 INFO: [Land   ] Tarpon Bay station
06:59:17 INFO: [Land   ] Gunboat Island, FL
06:59:19 INFO: [Land   ] Cannon Bay, FL
06:59:21 INFO: [Land   ] Murray Key, FL
06:59:21 INFO: [No Data] Blackwater Sound, FL
06:59:24 INFO: [Land   ] Butternut Key, FL
06:59:26 INFO: [Land   ] Shell Point station
06:59:28 INFO: [Land   ] Whipray Basin, FL
06:59:30 INFO: [Land   ] Apache Pier, Myrtle Beach, SC
06:59:33 INFO: [Land   ] Garfield Bight, FL
06:59:35 INFO: [Land   ] Lane River, FL 
06:59:37 INFO: [Land   ] Little Blackwater, FL
06:59:39 INFO: [Land   ] Little Madeira, FL
06:59:42 INFO: [Land   ] St Lucie Inlet station
06:59:44 INFO: [Land   ] White Water -West, FL
06:59:47 INFO: [Land   ] fau_lobo_1
06:59:49 INFO: [Water  ] CORMP ILM3, Wrightsville Beach Offshore, NC
06:59:49 INFO: [No Data] Broad River, FL
06:59:51 INFO: [Land   ] Willy Willy, FL
06:59:53 INFO: [Land   ] Cane Patch, FL
06:59:56 INFO: [Land   ] Sebastian Inlet met station
06:59:58 INFO: [Water  ] CAROCOOPS SUN2, Sunset Nearshore, NC
07:00:00 INFO: [Land   ] Bing&#39;s Landing station
07:00:00 INFO: [No Data] Bob Allen, FL
07:00:03 INFO: [Land   ] Trout Cove, FL
07:00:05 INFO: [Land   ] Johnson Key, FL
07:00:05 INFO: Finished processing [HYCOM]: http://crow.marine.usf.edu:8080/thredds/dodsC/WFS_SWAN_NF_model/USF_Ocean_Circulation_Group_West_Florida_Shelf_Daily_SWAN_Nowcast_Forecast_Wave_Model_Data_best.ncd

07:00:05 INFO:  Downloading to file 2014-07-07/2014-07-07-NECOFS_GOM3_WAVE.nc *
07:01:07 INFO: [Water  ] Duck, NC
07:01:23 INFO: [Water  ] Oregon Inlet Marina, NC
07:01:38 INFO: [Water  ] USCG Station Hatteras, NC
07:01:51 INFO: [Land   ] Beaufort, NC
07:01:53 INFO: [Land   ] Wilmington, NC
07:02:00 INFO: [Land   ] Wrightsville Beach, NC
07:02:03 INFO: [Land   ] Springmaid Pier, SC
07:02:04 INFO: [Land   ] Charleston, SC
07:02:18 INFO: [Water  ] Fort Pulaski, GA
07:02:20 INFO: [Land   ] Fernandina Beach, FL
07:02:21 INFO: [Land   ] Mayport (Bar Pilots Dock), FL
07:02:23 INFO: [Land   ] Dames Point, FL
07:02:24 INFO: [Land   ] Jacksonville University, FL
07:02:26 INFO: [Land   ] I-295 Bridge, St Johns River, FL
07:02:27 INFO: [Land   ] Red Bay Point, St Johns River, FL
07:02:29 INFO: [Land   ] Racy Point, St Johns River, FL
07:02:33 INFO: [Land   ] Trident Pier, FL
07:02:34 INFO: [Land   ] Lake Worth Pier, FL
07:02:48 INFO: [Water  ] Vaca Key, FL
07:03:02 INFO: [Water  ] Key West, FL
07:03:04 INFO: [Land   ] Naples, FL
07:03:05 INFO: [Land   ] Fort Myers, FL
07:03:07 INFO: [Land   ] Port Manatee, FL
07:03:11 INFO: [Land   ] St Petersburg, FL
07:03:16 INFO: [Land   ] Old Port Tampa, FL
07:03:24 INFO: [Land   ] Apalachicola, FL
07:03:25 INFO: [Land   ] Panama City, FL
07:03:32 INFO: [Land   ] Panama City Beach, FL
07:03:34 INFO: [Land   ] Pensacola, FL
07:03:35 INFO: [Land   ] Tolomato River station
07:03:49 INFO: [Water  ] Duck Key, FL
07:03:51 INFO: [Land   ] Broad River Lower, FL
07:04:05 INFO: [Water  ] Cherry Grove Pier, N. Myrtle Beach, SC
07:04:20 INFO: [Water  ] Gulf of Mexico station
07:04:33 INFO: [Water  ] Shell Point
07:04:35 INFO: [Land   ] Taylor River, FL
07:04:48 INFO: [Water  ] Redfish Pass station
07:05:02 INFO: [Water  ] Little Rabbit Key, FL
07:05:17 INFO: [Water  ] Peterson Key, FL
07:05:19 INFO: [Land   ] Fort Myers station
07:05:20 INFO: [Land   ] Highway Creek, FL
07:05:35 INFO: [Water  ] CORMP ILM2, Wrightsville Beach Nearshore, NC
07:05:41 INFO: [Land   ] Clear Water Pass, FL 
07:05:42 INFO: [Land   ] Tarpon Bay station
07:05:44 INFO: [Land   ] Gunboat Island, FL
07:05:45 INFO: [Land   ] Cannon Bay, FL
07:05:59 INFO: [Water  ] Murray Key, FL
07:06:13 INFO: [Water  ] Blackwater Sound, FL
07:06:26 INFO: [Water  ] Butternut Key, FL
07:06:33 INFO: [Land   ] Shell Point station
07:06:47 INFO: [Water  ] Whipray Basin, FL
07:06:57 INFO: [Land   ] Apache Pier, Myrtle Beach, SC
07:06:58 INFO: [Land   ] Garfield Bight, FL
07:06:59 INFO: [Land   ] Lane River, FL 
07:07:13 INFO: [Water  ] Little Blackwater, FL
07:07:18 INFO: [Land   ] Little Madeira, FL
07:07:20 INFO: [Land   ] St Lucie Inlet station
07:07:21 INFO: [Land   ] White Water -West, FL
07:07:23 INFO: [Land   ] fau_lobo_1
07:07:36 INFO: [Water  ] CORMP ILM3, Wrightsville Beach Offshore, NC
07:07:38 INFO: [Land   ] Broad River, FL
07:07:39 INFO: [Land   ] Willy Willy, FL
07:07:41 INFO: [Land   ] Cane Patch, FL
07:07:46 INFO: [Land   ] Sebastian Inlet met station
07:08:00 INFO: [Water  ] CAROCOOPS SUN2, Sunset Nearshore, NC
07:08:02 INFO: [Land   ] Bing&#39;s Landing station
07:08:18 INFO: [Water  ] Bob Allen, FL
07:08:19 INFO: [Land   ] Trout Cove, FL
07:08:33 INFO: [Water  ] Johnson Key, FL
07:08:33 INFO: Finished processing [NECOFS_GOM3_WAVE]: http://crow.marine.usf.edu:8080/thredds/dodsC/WFS_SWAN_NF_model/USF_Ocean_Circulation_Group_West_Florida_Shelf_Daily_SWAN_Nowcast_Forecast_Wave_Model_Data_best.ncd

07:08:56 INFO: 42.90 minutes
07:08:56 INFO: EOF
