11:12:21 INFO: *********************** Run information ************************
11:12:21 INFO: Run date: 2015-01-12 14:12:21
11:12:21 INFO: Download start: 2014-06-30 12:00:00
11:12:21 INFO: Download stop: 2014-07-07 12:00:00
11:12:21 INFO: Bounding box: -87.40, 24.25,-74.70, 36.70
11:12:21 INFO: *********************** Software version ***********************
11:12:21 INFO: Iris version: 1.8.0-DEV
11:12:21 INFO: owslib version: 0.8-dev
11:12:21 INFO: pyoos version: 0.6.2
11:12:26 INFO: ********************* Catalog information **********************
11:12:26 INFO: URL: http://www.ngdc.noaa.gov/geoportal/csw
11:12:26 INFO: CSW version: 2.0.2
11:12:26 INFO: Number of datasets available: 9
11:12:26 INFO: ***************************** CSW ******************************
11:12:26 INFO: USF FVCOM - Nowcast Aggregation
11:12:26 INFO: ROMS/TOMS 3.0 - New Floria Shelf Application
11:12:26 INFO: ROMS/TOMS 3.0 - South-Atlantic Bight and Gulf of Mexico
11:12:26 INFO: COAWST Forecast System : USGS : US East Coast and Gulf of Mexico (Experimental)
11:12:26 INFO: ROMS ESPRESSO Real-Time Operational IS4DVAR Forecast System Version 2 (NEW) 2013-present FMRC History (Best)
11:12:26 INFO: Barotropic Tide Model for the Pacific Basin
11:12:26 INFO: HYbrid Coordinate Ocean Model (HYCOM): Global
11:12:26 INFO: ESTOFS Storm Surge Model - Atlantic - v1.0.0 - NOAA - NCEP - ADCIRC
11:12:26 INFO: NECOFS GOM3 Wave - Northeast US - Latest Forecast
11:12:26 INFO: ***************************** DAP ******************************
11:12:26 INFO: http://crow.marine.usf.edu:8080/thredds/dodsC/FVCOM-Nowcast-Agg.nc.html
11:12:26 INFO: http://crow.marine.usf.edu:8080/thredds/dodsC/WFS_ROMS_NF_model/USF_Ocean_Circulation_Group_West_Florida_Shelf_Daily_ROMS_Nowcast_Forecast_Model_Data_best.ncd.html
11:12:26 INFO: http://geoport-dev.whoi.edu/thredds/dodsC/estofs/atlantic.html
11:12:26 INFO: http://geoport.whoi.edu/thredds/dodsC/coawst_4/use/fmrc/coawst_4_use_best.ncd.html
11:12:26 INFO: http://omgsrv1.meas.ncsu.edu:8080/thredds/dodsC/fmrc/sabgom/SABGOM_Forecast_Model_Run_Collection_best.ncd.html
11:12:26 INFO: http://oos.soest.hawaii.edu/thredds/dodsC/hioos/tide_pac.html
11:12:26 INFO: http://oos.soest.hawaii.edu/thredds/dodsC/pacioos/hycom/global.html
11:12:26 INFO: http://tds.marine.rutgers.edu/thredds/dodsC/roms/espresso/2013_da/his_Best/ESPRESSO_Real-Time_v2_History_Best_Available_best.ncd.html
11:12:26 INFO: http://www.smast.umassd.edu:8080/thredds/dodsC/FVCOM/NECOFS/Forecasts/NECOFS_WAVE_FORECAST.nc.html
11:12:26 INFO: ***************************** SOS ******************************
11:12:26 WARNING: USEAST not in the catalog
11:12:26 WARNING: USF_SWAN not in the catalog
11:13:03 INFO: ********************* Collector offerings **********************
11:13:03 INFO: NOAA.NOS.CO-OPS SOS: 1024 offerings
11:13:05 INFO: SOS URL request: http://opendap.co-ops.nos.noaa.gov/ioos-dif-sos/SOS?eventTime=2014-06-30T12%3A00%3A00Z&service=SOS&offering=urn%3Aioos%3Anetwork%3ANOAA.NOS.CO-OPS%3AWaterLevelActive&request=GetObservation&version=1.0.0&responseFormat=text%2Fcsv&featureOfInterest=BBOX%3A-87.4%2C24.25%2C-74.7%2C36.7&observedProperty=water_surface_height_above_reference_datum
11:13:28 INFO: ***************** Observations (station data) ******************
11:13:28 INFO: **** Downloading to file 2014-07-07/2014-07-07-OBS_DATA.nc *****
11:13:42 WARNING: [8654467] USCG Station Hatteras, NC:
'Wrong Datum for this station: The correct Datum values are: MHHW, MHW, MTL, MSL, MLW, MLLW, STND'
11:13:44 WARNING: [8656483] Beaufort, NC:
'Wrong Datum for this station: The correct Datum values are: MHHW, MHW, MTL, MSL, MLW, MLLW, STND'
11:13:46 WARNING: [8658120] Wilmington, NC:
'Wrong Datum for this station: The correct Datum values are: MHHW, MHW, MTL, MSL, MLW, MLLW, STND'
11:15:30 WARNING: [8726520] St Petersburg, FL:
'Wrong Datum for this station: The correct Datum values are: MHHW, MHW, MTL, MSL, MLW, MLLW, STND'
11:15:32 WARNING: [8726607] Old Port Tampa, FL:
'Wrong Datum for this station: The correct Datum values are: MHHW, MHW, MTL, MSL, MLW, MLLW, STND'
11:15:52 WARNING: [8729210] Panama City Beach, FL:
'Wrong Datum for this station: The correct Datum values are: MHHW, MHW, MTL, MSL, MLW, MLLW, STND'
11:15:56 INFO: **************************** Models ****************************
11:15:56 INFO: 
[Reading url 1/10]: http://crow.marine.usf.edu:8080/thredds/dodsC/FVCOM-Nowcast-Agg.nc
11:15:58 WARNING: /home/filipe/.virtualenvs/iris/lib/python2.7/site-packages/iris/fileformats/cf.py:1006: UserWarning: Ignoring variable u'lat' referenced by variable u'hc': Dimensions (u'node',) do not span (u'nele',)
  warnings.warn(msg)

11:15:58 WARNING: /home/filipe/.virtualenvs/iris/lib/python2.7/site-packages/iris/fileformats/cf.py:1006: UserWarning: Ignoring variable u'lon' referenced by variable u'hc': Dimensions (u'node',) do not span (u'nele',)
  warnings.warn(msg)

11:15:58 WARNING: /home/filipe/.virtualenvs/iris/lib/python2.7/site-packages/iris/fileformats/cf.py:1006: UserWarning: Ignoring variable u'siglay' referenced by variable u'u': Dimensions (u'siglay', u'node') do not span (u'time', u'siglay', u'nele')
  warnings.warn(msg)

11:15:58 WARNING: /home/filipe/.virtualenvs/iris/lib/python2.7/site-packages/iris/fileformats/cf.py:1006: UserWarning: Ignoring variable u'siglay' referenced by variable u'v': Dimensions (u'siglay', u'node') do not span (u'time', u'siglay', u'nele')
  warnings.warn(msg)

11:16:00 WARNING: /home/filipe/.virtualenvs/iris/lib/python2.7/site-packages/iris/fileformats/_pyke_rules/compiled_krb/fc_rules_cf_fc.py:1442: UserWarning: Failed to create 'time' dimension coordinate: The points array must be strictly monotonic.
Gracefully creating 'time' auxiliary coordinate instead.
  error=e_msg))

11:16:00 WARNING: /home/filipe/.virtualenvs/iris/lib/python2.7/site-packages/iris/fileformats/_pyke_rules/compiled_krb/fc_rules_cf_fc.py:1301: UserWarning: Ignoring netCDF variable 'Itime2' invalid units 'msecs since 00:00:00'
  warnings.warn(msg.format(msg_name, msg_units))

11:16:11 INFO: 
[Reading url 2/10]: http://crow.marine.usf.edu:8080/thredds/dodsC/WFS_ROMS_NF_model/USF_Ocean_Circulation_Group_West_Florida_Shelf_Daily_ROMS_Nowcast_Forecast_Model_Data_best.ncd
11:16:12 WARNING: /home/filipe/.virtualenvs/iris/lib/python2.7/site-packages/iris/fileformats/cf.py:1040: UserWarning: Ignoring formula terms variable u'h' referenced by data variable u'v' via variable u's_rho': Dimensions (u'eta_rho', u'xi_rho') do not span (u'time', u's_rho', u'eta_v', u'xi_v')
  warnings.warn(msg)

11:16:12 WARNING: /home/filipe/.virtualenvs/iris/lib/python2.7/site-packages/iris/fileformats/cf.py:1040: UserWarning: Ignoring formula terms variable u'zeta' referenced by data variable u'v' via variable u's_rho': Dimensions (u'time', u'eta_rho', u'xi_rho') do not span (u'time', u's_rho', u'eta_v', u'xi_v')
  warnings.warn(msg)

11:16:12 WARNING: /home/filipe/.virtualenvs/iris/lib/python2.7/site-packages/iris/fileformats/cf.py:1040: UserWarning: Ignoring formula terms variable u'h' referenced by data variable u'u' via variable u's_rho': Dimensions (u'eta_rho', u'xi_rho') do not span (u'time', u's_rho', u'eta_u', u'xi_u')
  warnings.warn(msg)

11:16:12 WARNING: /home/filipe/.virtualenvs/iris/lib/python2.7/site-packages/iris/fileformats/cf.py:1040: UserWarning: Ignoring formula terms variable u'zeta' referenced by data variable u'u' via variable u's_rho': Dimensions (u'time', u'eta_rho', u'xi_rho') do not span (u'time', u's_rho', u'eta_u', u'xi_u')
  warnings.warn(msg)

11:16:12 WARNING: /home/filipe/.virtualenvs/iris/lib/python2.7/site-packages/iris/fileformats/_pyke_rules/compiled_krb/fc_rules_cf_fc.py:1396: UserWarning: Gracefully filling 'time' dimension coordinate masked points
  warnings.warn(msg.format(str(cf_coord_var.cf_name)))

11:16:12 WARNING: /home/filipe/.virtualenvs/iris/lib/python2.7/site-packages/iris/fileformats/_pyke_rules/compiled_krb/fc_rules_cf_fc.py:1301: UserWarning: Ignoring netCDF variable 'Cs_r' invalid units 'nondimensional'
  warnings.warn(msg.format(msg_name, msg_units))

11:16:12 WARNING: /home/filipe/.virtualenvs/iris/lib/python2.7/site-packages/iris/fileformats/_pyke_rules/compiled_krb/fc_rules_cf_fc.py:1301: UserWarning: Ignoring netCDF variable 's_rho' invalid units 'nondimensional'
  warnings.warn(msg.format(msg_name, msg_units))

11:16:12 WARNING: /home/filipe/.virtualenvs/iris/lib/python2.7/site-packages/iris/fileformats/netcdf.py:441: UserWarning: Unable to find coordinate for variable u'zeta'
  '{!r}'.format(name))

11:16:12 WARNING: /home/filipe/.virtualenvs/iris/lib/python2.7/site-packages/iris/fileformats/netcdf.py:441: UserWarning: Unable to find coordinate for variable u'h'
  '{!r}'.format(name))

11:16:12 WARNING: /home/filipe/.virtualenvs/iris/lib/python2.7/site-packages/iris/fileformats/netcdf.py:558: UserWarning: Unable to construct Ocean s-coordinate, generic form 1 factory due to insufficient source coordinates.
  warnings.warn('{}'.format(e))

11:16:12 WARNING: /home/filipe/.virtualenvs/iris/lib/python2.7/site-packages/iris/fileformats/netcdf.py:558: UserWarning: Invalid units: s coordinate u'ocean_s_coordinate_g1' must be dimensionless.
  warnings.warn('{}'.format(e))

11:16:12 WARNING: /home/filipe/.virtualenvs/iris/lib/python2.7/site-packages/iris/fileformats/_pyke_rules/compiled_krb/fc_rules_cf_fc.py:1301: UserWarning: Ignoring netCDF variable 'Cs_w' invalid units 'nondimensional'
  warnings.warn(msg.format(msg_name, msg_units))

11:16:12 WARNING: /home/filipe/.virtualenvs/iris/lib/python2.7/site-packages/iris/fileformats/_pyke_rules/compiled_krb/fc_rules_cf_fc.py:1301: UserWarning: Ignoring netCDF variable 's_w' invalid units 'nondimensional'
  warnings.warn(msg.format(msg_name, msg_units))

11:16:13 WARNING: /home/filipe/.virtualenvs/iris/lib/python2.7/site-packages/iris/fileformats/_pyke_rules/compiled_krb/fc_rules_cf_fc.py:1301: UserWarning: Ignoring netCDF variable 'salt' invalid units 'PSU'
  warnings.warn(msg.format(msg_name, msg_units))

11:16:16 INFO: 
[Reading url 3/10]: http://geoport-dev.whoi.edu/thredds/dodsC/estofs/atlantic
11:16:18 WARNING: /home/filipe/.virtualenvs/iris/lib/python2.7/site-packages/iris/fileformats/_pyke_rules/compiled_krb/fc_rules_cf_fc.py:1301: UserWarning: Ignoring netCDF variable 'nbdv' invalid units 'nondimensional'
  warnings.warn(msg.format(msg_name, msg_units))

11:16:18 WARNING: /home/filipe/.virtualenvs/iris/lib/python2.7/site-packages/iris/fileformats/_pyke_rules/compiled_krb/fc_rules_cf_fc.py:1301: UserWarning: Ignoring netCDF variable 'neta' invalid units 'nondimensional'
  warnings.warn(msg.format(msg_name, msg_units))

11:16:19 WARNING: /home/filipe/.virtualenvs/iris/lib/python2.7/site-packages/iris/fileformats/_pyke_rules/compiled_krb/fc_rules_cf_fc.py:1301: UserWarning: Ignoring netCDF variable 'ibtypee' invalid units 'nondimensional'
  warnings.warn(msg.format(msg_name, msg_units))

11:16:19 WARNING: /home/filipe/.virtualenvs/iris/lib/python2.7/site-packages/iris/fileformats/_pyke_rules/compiled_krb/fc_rules_cf_fc.py:1301: UserWarning: Ignoring netCDF variable 'nvell' invalid units 'nondimensional'
  warnings.warn(msg.format(msg_name, msg_units))

11:16:19 WARNING: /home/filipe/.virtualenvs/iris/lib/python2.7/site-packages/iris/fileformats/_pyke_rules/compiled_krb/fc_rules_cf_fc.py:1301: UserWarning: Ignoring netCDF variable 'ibtype' invalid units 'nondimensional'
  warnings.warn(msg.format(msg_name, msg_units))

11:16:19 WARNING: /home/filipe/.virtualenvs/iris/lib/python2.7/site-packages/iris/fileformats/_pyke_rules/compiled_krb/fc_rules_cf_fc.py:1301: UserWarning: Ignoring netCDF variable 'nbvv' invalid units 'nondimensional'
  warnings.warn(msg.format(msg_name, msg_units))

11:16:19 WARNING: /home/filipe/.virtualenvs/iris/lib/python2.7/site-packages/iris/fileformats/_pyke_rules/compiled_krb/fc_rules_cf_fc.py:1301: UserWarning: Ignoring netCDF variable 'nvel' invalid units 'nondimensional'
  warnings.warn(msg.format(msg_name, msg_units))

11:16:19 WARNING: /home/filipe/.virtualenvs/iris/lib/python2.7/site-packages/iris/fileformats/_pyke_rules/compiled_krb/fc_rules_cf_fc.py:1301: UserWarning: Ignoring netCDF variable 'nvdll' invalid units 'nondimensional'
  warnings.warn(msg.format(msg_name, msg_units))

11:17:47 INFO: 
[Reading url 4/10]: http://geoport.whoi.edu/thredds/dodsC/coawst_4/use/fmrc/coawst_4_use_best.ncd
11:18:50 INFO: 
[Reading url 5/10]: http://omgsrv1.meas.ncsu.edu:8080/thredds/dodsC/fmrc/sabgom/SABGOM_Forecast_Model_Run_Collection_best.ncd
11:18:52 WARNING: /home/filipe/.virtualenvs/iris/lib/python2.7/site-packages/iris/fileformats/_pyke_rules/compiled_krb/fc_rules_cf_fc.py:1301: UserWarning: Ignoring netCDF variable 'chlorophyll' invalid units 'milligrams_chlorophyll meter-3'
  warnings.warn(msg.format(msg_name, msg_units))

11:18:52 WARNING: /home/filipe/.virtualenvs/iris/lib/python2.7/site-packages/iris/fileformats/_pyke_rules/compiled_krb/fc_rules_cf_fc.py:1301: UserWarning: Ignoring netCDF variable 'phytoplankton' invalid units 'millimole_nitrogen meter-3'
  warnings.warn(msg.format(msg_name, msg_units))

11:18:52 WARNING: /home/filipe/.virtualenvs/iris/lib/python2.7/site-packages/iris/fileformats/_pyke_rules/compiled_krb/fc_rules_cf_fc.py:1301: UserWarning: Ignoring netCDF variable 'NO3' invalid units 'millimole_N03 meter-3'
  warnings.warn(msg.format(msg_name, msg_units))

11:18:52 WARNING: /home/filipe/.virtualenvs/iris/lib/python2.7/site-packages/iris/fileformats/_pyke_rules/compiled_krb/fc_rules_cf_fc.py:1301: UserWarning: Ignoring netCDF variable 'zooplankton' invalid units 'millimole_nitrogen meter-3'
  warnings.warn(msg.format(msg_name, msg_units))

11:18:52 WARNING: /home/filipe/.virtualenvs/iris/lib/python2.7/site-packages/iris/fileformats/_pyke_rules/compiled_krb/fc_rules_cf_fc.py:1301: UserWarning: Ignoring netCDF variable 'NH4' invalid units 'millimole_NH4 meter-3'
  warnings.warn(msg.format(msg_name, msg_units))

11:18:59 WARNING: Cannot get cube for: http://omgsrv1.meas.ncsu.edu:8080/thredds/dodsC/fmrc/sabgom/SABGOM_Forecast_Model_Run_Collection_best.ncd
istart must be different from istop! Got istart 0 and  istop 0
11:18:59 INFO: 
[Reading url 6/10]: http://oos.soest.hawaii.edu/thredds/dodsC/hioos/tide_pac
11:19:08 WARNING: Cannot get cube for: http://oos.soest.hawaii.edu/thredds/dodsC/hioos/tide_pac
The points array must be strictly monotonic.
11:19:08 INFO: 
[Reading url 7/10]: http://oos.soest.hawaii.edu/thredds/dodsC/pacioos/hycom/global
11:19:30 WARNING: Cannot get cube for: http://oos.soest.hawaii.edu/thredds/dodsC/pacioos/hycom/global
The points array must be strictly monotonic.
11:19:30 INFO: 
[Reading url 8/10]: http://tds.marine.rutgers.edu/thredds/dodsC/roms/espresso/2013_da/his_Best/ESPRESSO_Real-Time_v2_History_Best_Available_best.ncd
11:19:43 INFO: 
[Reading url 9/10]: http://omgsrv1.meas.ncsu.edu:8080/thredds/dodsC/fmrc/us_east/US_East_Forecast_Model_Run_Collection_best.ncd
11:19:45 WARNING: /home/filipe/.virtualenvs/iris/lib/python2.7/site-packages/iris/fileformats/netcdf.py:558: UserWarning: Unable to construct Ocean s-coordinate, generic form 2 factory due to insufficient source coordinates.
  warnings.warn('{}'.format(e))

11:19:54 WARNING: Cannot get cube for: http://omgsrv1.meas.ncsu.edu:8080/thredds/dodsC/fmrc/us_east/US_East_Forecast_Model_Run_Collection_best.ncd
istart must be different from istop! Got istart 0 and  istop 0
11:19:54 INFO: 
[Reading url 10/10]: http://crow.marine.usf.edu:8080/thredds/dodsC/WFS_SWAN_NF_model/USF_Ocean_Circulation_Group_West_Florida_Shelf_Daily_SWAN_Nowcast_Forecast_Wave_Model_Data_best.ncd
11:19:55 WARNING: /home/filipe/.virtualenvs/iris/lib/python2.7/site-packages/iris/fileformats/_pyke_rules/compiled_krb/fc_rules_cf_fc.py:1301: UserWarning: Ignoring netCDF variable 'Itime2' invalid units 'msec since 00:00:00'
  warnings.warn(msg.format(msg_name, msg_units))

11:19:55 WARNING: Cannot get cube for: http://crow.marine.usf.edu:8080/thredds/dodsC/WFS_SWAN_NF_model/USF_Ocean_Circulation_Group_West_Florida_Shelf_Daily_SWAN_Nowcast_Forecast_Wave_Model_Data_best.ncd
Cube does not contain ['sea_surface_height', 'sea_surface_elevation', 'sea_surface_height_above_geoid', 'sea_surface_height_above_sea_level', 'water_surface_height_above_reference_datum', 'sea_surface_height_above_reference_ellipsoid']
11:19:55 INFO: ******* Saving to file 2014-07-07/2014-07-07-USF_ROMS.nc *******
11:19:55 WARNING: No data found for (-75.7467,36.1833) using max_dist=0.04.
11:19:55 WARNING: No data found for (-75.5483,35.795) using max_dist=0.04.
11:19:55 WARNING: No data found for (-77.7867,34.2133) using max_dist=0.04.
11:19:55 WARNING: No data found for (-78.9183,33.655) using max_dist=0.04.
11:19:55 WARNING: No data found for (-79.1867,33.3517) using max_dist=0.04.
11:19:55 WARNING: No data found for (-79.925,32.7817) using max_dist=0.04.
11:19:55 WARNING: No data found for (-81.465,30.6717) using max_dist=0.04.
11:19:55 WARNING: No data found for (-81.43,30.3967) using max_dist=0.04.
11:19:55 WARNING: No data found for (-81.5583,30.3867) using max_dist=0.04.
11:19:55 WARNING: No data found for (-81.6583,30.32) using max_dist=0.04.
11:19:55 WARNING: No data found for (-81.6917,30.1917) using max_dist=0.04.
11:19:55 WARNING: No data found for (-81.6283,29.9783) using max_dist=0.04.
11:19:55 WARNING: No data found for (-81.5483,29.8017) using max_dist=0.04.
11:19:55 WARNING: No data found for (-80.5931,28.4158) using max_dist=0.04.
11:19:55 WARNING: No data found for (-80.0333,26.6117) using max_dist=0.04.
11:19:55 WARNING: No data found for (-81.105,24.7117) using max_dist=0.04.
11:19:55 WARNING: No data found for (-81.8079,24.5557) using max_dist=0.04.
11:19:57 INFO: [Water] Naples, FL
11:19:58 INFO: [Water] Fort Myers, FL
11:20:01 INFO: [Water] Port Manatee, FL
11:20:06 INFO: [Water] Cedar Key, FL
11:20:08 INFO: [Water] Apalachicola, FL
11:20:11 INFO: [Water] Panama City, FL
11:20:11 WARNING: No data found for (-87.2112,30.4044) using max_dist=0.04.
11:20:20 INFO: Finished processing [USF_ROMS]: http://crow.marine.usf.edu:8080/thredds/dodsC/WFS_SWAN_NF_model/USF_Ocean_Circulation_Group_West_Florida_Shelf_Daily_SWAN_Nowcast_Forecast_Wave_Model_Data_best.ncd
11:20:20 INFO: ****** Saving to file 2014-07-07/2014-07-07-USF_FVCOM.nc *******
11:20:21 WARNING: No data found for (-75.7467,36.1833) using max_dist=0.04.
11:20:21 WARNING: No data found for (-75.5483,35.795) using max_dist=0.04.
11:20:21 WARNING: No data found for (-77.7867,34.2133) using max_dist=0.04.
11:20:21 WARNING: No data found for (-78.9183,33.655) using max_dist=0.04.
11:20:21 WARNING: No data found for (-79.1867,33.3517) using max_dist=0.04.
11:20:21 WARNING: No data found for (-79.925,32.7817) using max_dist=0.04.
11:20:21 WARNING: No data found for (-81.465,30.6717) using max_dist=0.04.
11:20:21 WARNING: No data found for (-81.43,30.3967) using max_dist=0.04.
11:20:21 WARNING: No data found for (-81.5583,30.3867) using max_dist=0.04.
11:20:21 WARNING: No data found for (-81.6583,30.32) using max_dist=0.04.
11:20:21 WARNING: No data found for (-81.6917,30.1917) using max_dist=0.04.
11:20:21 WARNING: No data found for (-81.6283,29.9783) using max_dist=0.04.
11:20:21 WARNING: No data found for (-81.5483,29.8017) using max_dist=0.04.
11:20:21 WARNING: No data found for (-80.5931,28.4158) using max_dist=0.04.
11:20:21 WARNING: No data found for (-80.0333,26.6117) using max_dist=0.04.
11:20:33 INFO: [Water] Vaca Key, FL
11:20:45 INFO: [Water] Key West, FL
11:20:57 INFO: [Water] Naples, FL
11:21:09 INFO: [Water] Fort Myers, FL
11:21:21 INFO: [Water] Port Manatee, FL
11:21:26 INFO: [Water] Cedar Key, FL
11:21:38 INFO: [Water] Apalachicola, FL
11:21:38 WARNING: No data found for (-85.6669,30.1523) using max_dist=0.04.
11:21:38 WARNING: No data found for (-87.2112,30.4044) using max_dist=0.04.
11:21:38 INFO: Finished processing [USF_FVCOM]: http://crow.marine.usf.edu:8080/thredds/dodsC/WFS_SWAN_NF_model/USF_Ocean_Circulation_Group_West_Florida_Shelf_Daily_SWAN_Nowcast_Forecast_Wave_Model_Data_best.ncd
11:21:38 INFO: ******* Saving to file 2014-07-07/2014-07-07-COAWST_4.nc *******
11:21:45 INFO: [Land ] Duck, NC
11:21:57 INFO: [Water] Oregon Inlet Marina, NC
11:22:04 INFO: [Water] Wrightsville Beach, NC
11:22:17 INFO: [Water] Springmaid Pier, SC
11:22:24 INFO: [Land ] Oyster Landing (N Inlet Estuary), SC
11:22:31 INFO: [Land ] Charleston, SC
11:22:37 INFO: [Land ] Fernandina Beach, FL
11:22:43 INFO: [Land ] Mayport (Bar Pilots Dock), FL
11:22:51 INFO: [Land ] Dames Point, FL
11:22:58 INFO: [Land ] Southbank Riverwalk, St Johns River, FL
11:23:05 INFO: [Land ] I-295 Bridge, St Johns River, FL
11:23:12 INFO: [Land ] Red Bay Point, St Johns River, FL
11:23:18 INFO: [Land ] Racy Point, St Johns River, FL
11:23:25 INFO: [Land ] Trident Pier, FL
11:23:40 INFO: [Water] Lake Worth Pier, FL
11:23:47 INFO: [Land ] Vaca Key, FL
11:24:02 INFO: [Water] Key West, FL
11:24:09 INFO: [Land ] Naples, FL
11:24:15 INFO: [Land ] Fort Myers, FL
11:24:22 INFO: [Land ] Port Manatee, FL
11:24:36 INFO: [Water] Cedar Key, FL
11:24:43 INFO: [Water] Apalachicola, FL
11:24:50 INFO: [Water] Panama City, FL
11:24:56 INFO: [Water] Pensacola, FL
11:25:54 INFO: Finished processing [COAWST_4]: http://crow.marine.usf.edu:8080/thredds/dodsC/WFS_SWAN_NF_model/USF_Ocean_Circulation_Group_West_Florida_Shelf_Daily_SWAN_Nowcast_Forecast_Wave_Model_Data_best.ncd
11:25:54 INFO: ******** Saving to file 2014-07-07/2014-07-07-ESTOFS.nc ********
11:25:59 INFO: [Water] Duck, NC
11:26:01 INFO: [Water] Oregon Inlet Marina, NC
11:26:10 INFO: [Water] Wrightsville Beach, NC
11:26:20 INFO: [Water] Springmaid Pier, SC
11:26:22 INFO: [Water] Oyster Landing (N Inlet Estuary), SC
11:26:22 WARNING: No data found for (-79.925,32.7817) using max_dist=0.04.
11:26:24 INFO: [Water] Fernandina Beach, FL
11:26:26 INFO: [Water] Mayport (Bar Pilots Dock), FL
11:26:26 WARNING: No data found for (-81.5583,30.3867) using max_dist=0.04.
11:26:26 WARNING: No data found for (-81.6583,30.32) using max_dist=0.04.
11:26:26 WARNING: No data found for (-81.6917,30.1917) using max_dist=0.04.
11:26:26 WARNING: No data found for (-81.6283,29.9783) using max_dist=0.04.
11:26:26 WARNING: No data found for (-81.5483,29.8017) using max_dist=0.04.
11:26:31 INFO: [Water] Trident Pier, FL
11:26:36 INFO: [Water] Lake Worth Pier, FL
11:26:46 INFO: [Water] Vaca Key, FL
11:26:54 INFO: [Water] Key West, FL
11:27:02 INFO: [Water] Naples, FL
11:27:02 WARNING: No data found for (-81.8712,26.6477) using max_dist=0.04.
11:27:15 INFO: [Water] Port Manatee, FL
11:27:27 INFO: [Water] Cedar Key, FL
11:27:36 INFO: [Water] Apalachicola, FL
11:27:36 WARNING: No data found for (-85.6669,30.1523) using max_dist=0.04.
11:27:36 WARNING: No data found for (-87.2112,30.4044) using max_dist=0.04.
11:27:36 INFO: Finished processing [ESTOFS]: http://crow.marine.usf.edu:8080/thredds/dodsC/WFS_SWAN_NF_model/USF_Ocean_Circulation_Group_West_Florida_Shelf_Daily_SWAN_Nowcast_Forecast_Wave_Model_Data_best.ncd
11:27:36 INFO: ******* Saving to file 2014-07-07/2014-07-07-ESPRESSO.nc *******
11:27:39 INFO: [Land ] Duck, NC
11:27:43 INFO: [Water] Oregon Inlet Marina, NC
11:27:43 WARNING: No data found for (-77.7867,34.2133) using max_dist=0.04.
11:27:43 WARNING: No data found for (-78.9183,33.655) using max_dist=0.04.
11:27:43 WARNING: No data found for (-79.1867,33.3517) using max_dist=0.04.
11:27:43 WARNING: No data found for (-79.925,32.7817) using max_dist=0.04.
11:27:43 WARNING: No data found for (-81.465,30.6717) using max_dist=0.04.
11:27:43 WARNING: No data found for (-81.43,30.3967) using max_dist=0.04.
11:27:43 WARNING: No data found for (-81.5583,30.3867) using max_dist=0.04.
11:27:43 WARNING: No data found for (-81.6583,30.32) using max_dist=0.04.
11:27:43 WARNING: No data found for (-81.6917,30.1917) using max_dist=0.04.
11:27:43 WARNING: No data found for (-81.6283,29.9783) using max_dist=0.04.
11:27:43 WARNING: No data found for (-81.5483,29.8017) using max_dist=0.04.
11:27:43 WARNING: No data found for (-80.5931,28.4158) using max_dist=0.04.
11:27:43 WARNING: No data found for (-80.0333,26.6117) using max_dist=0.04.
11:27:43 WARNING: No data found for (-81.105,24.7117) using max_dist=0.04.
11:27:43 WARNING: No data found for (-81.8079,24.5557) using max_dist=0.04.
11:27:43 WARNING: No data found for (-81.8075,26.1317) using max_dist=0.04.
11:27:43 WARNING: No data found for (-81.8712,26.6477) using max_dist=0.04.
11:27:43 WARNING: No data found for (-82.5621,27.6387) using max_dist=0.04.
11:27:43 WARNING: No data found for (-83.0317,29.135) using max_dist=0.04.
11:27:43 WARNING: No data found for (-84.9817,29.7267) using max_dist=0.04.
11:27:43 WARNING: No data found for (-85.6669,30.1523) using max_dist=0.04.
11:27:43 WARNING: No data found for (-87.2112,30.4044) using max_dist=0.04.
11:27:46 INFO: Finished processing [ESPRESSO]: http://crow.marine.usf.edu:8080/thredds/dodsC/WFS_SWAN_NF_model/USF_Ocean_Circulation_Group_West_Florida_Shelf_Daily_SWAN_Nowcast_Forecast_Wave_Model_Data_best.ncd
11:27:46 WARNING: /home/filipe/.virtualenvs/iris/lib/python2.7/site-packages/pandas/util/decorators.py:81: FutureWarning: the 'cols' keyword is deprecated, use 'subset' instead
  warnings.warn(msg, FutureWarning)

11:28:23 WARNING: /home/filipe/.virtualenvs/iris/lib/python2.7/site-packages/matplotlib/pyplot.py:424: RuntimeWarning: More than 20 figures have been opened. Figures created through the pyplot interface (`matplotlib.pyplot.figure`) are retained until explicitly closed and may consume too much memory. (To control this warning, see the rcParam `figure.max_open_warning`).
  max_open_warning, RuntimeWarning)

11:28:55 INFO: 16.65 minutes
11:28:55 INFO: EOF
