05:31:16 INFO: *********************** Run information ************************
05:31:16 INFO: Run date: 2015-01-21 20:31:16
05:31:16 INFO: Download start: 2014-06-30 12:00:00
05:31:16 INFO: Download stop: 2014-07-07 12:00:00
05:31:16 INFO: Bounding box: -87.40, 24.25,-74.70, 36.70
05:31:16 INFO: *********************** Software version ***********************
05:31:16 INFO: Iris version: 1.7.2-DEV
05:31:16 INFO: owslib version: 0.8.9
05:31:16 INFO: pyoos version: 0.6.1
05:31:19 INFO: ********************* Catalog information **********************
05:31:19 INFO: URL: http://www.ngdc.noaa.gov/geoportal/csw
05:31:19 INFO: CSW version: 2.0.2
05:31:19 INFO: Number of datasets available: 9
05:31:19 INFO: ***************************** CSW ******************************
05:31:19 INFO: USF FVCOM - Nowcast Aggregation
05:31:19 INFO: ROMS/TOMS 3.0 - New Floria Shelf Application
05:31:19 INFO: ROMS/TOMS 3.0 - South-Atlantic Bight and Gulf of Mexico
05:31:19 INFO: COAWST Forecast System : USGS : US East Coast and Gulf of Mexico (Experimental)
05:31:19 INFO: ROMS ESPRESSO Real-Time Operational IS4DVAR Forecast System Version 2 (NEW) 2013-present FMRC History (Best)
05:31:19 INFO: Barotropic Tide Model for the Pacific Basin
05:31:19 INFO: HYbrid Coordinate Ocean Model (HYCOM): Global
05:31:19 INFO: ESTOFS Storm Surge Model - Atlantic - v1.0.0 - NOAA - NCEP - ADCIRC
05:31:19 INFO: NECOFS GOM3 Wave - Northeast US - Latest Forecast
05:31:19 INFO: ***************************** DAP ******************************
05:31:19 INFO: http://crow.marine.usf.edu:8080/thredds/dodsC/FVCOM-Nowcast-Agg.nc.html
05:31:19 INFO: http://crow.marine.usf.edu:8080/thredds/dodsC/WFS_ROMS_NF_model/USF_Ocean_Circulation_Group_West_Florida_Shelf_Daily_ROMS_Nowcast_Forecast_Model_Data_best.ncd.html
05:31:19 INFO: http://geoport-dev.whoi.edu/thredds/dodsC/estofs/atlantic.html
05:31:19 INFO: http://geoport.whoi.edu/thredds/dodsC/coawst_4/use/fmrc/coawst_4_use_best.ncd.html
05:31:19 INFO: http://omgsrv1.meas.ncsu.edu:8080/thredds/dodsC/fmrc/sabgom/SABGOM_Forecast_Model_Run_Collection_best.ncd.html
05:31:19 INFO: http://oos.soest.hawaii.edu/thredds/dodsC/hioos/tide_pac.html
05:31:19 INFO: http://oos.soest.hawaii.edu/thredds/dodsC/pacioos/hycom/global.html
05:31:19 INFO: http://tds.marine.rutgers.edu/thredds/dodsC/roms/espresso/2013_da/his_Best/ESPRESSO_Real-Time_v2_History_Best_Available_best.ncd.html
05:31:19 INFO: http://www.smast.umassd.edu:8080/thredds/dodsC/FVCOM/NECOFS/Forecasts/NECOFS_WAVE_FORECAST.nc.html
05:31:19 INFO: ***************************** SOS ******************************
05:31:19 WARNING: USEAST not in the NGDC csw
05:31:19 WARNING: USF_SWAN not in the NGDC csw
05:31:25 INFO: ********************* Collector offerings **********************
05:31:25 INFO: NOAA.NOS.CO-OPS SOS: 1029 offerings
05:31:36 INFO: SOS URL request: http://opendap.co-ops.nos.noaa.gov/ioos-dif-sos/SOS?eventTime=2014-06-30T12%3A00%3A00Z&service=SOS&offering=urn%3Aioos%3Anetwork%3ANOAA.NOS.CO-OPS%3AWaterLevelActive&request=GetObservation&version=1.0.0&responseFormat=text%2Fcsv&featureOfInterest=BBOX%3A-87.4%2C24.25%2C-74.7%2C36.7&observedProperty=water_surface_height_above_reference_datum
05:32:03 INFO: ************************* Observations *************************
05:32:03 INFO: **** Downloading to file 2014-07-07/2014-07-07-OBS_DATA.nc *****
05:32:11 WARNING: [8654467] USCG Station Hatteras, NC:
'Wrong Datum for this station: The correct Datum values are: MHHW, MHW, MTL, MSL, MLW, MLLW, STND'
05:32:14 WARNING: [8656483] Beaufort, NC:
'Wrong Datum for this station: The correct Datum values are: MHHW, MHW, MTL, MSL, MLW, MLLW, STND'
05:32:17 WARNING: [8658120] Wilmington, NC:
'Wrong Datum for this station: The correct Datum values are: MHHW, MHW, MTL, MSL, MLW, MLLW, STND'
05:33:43 WARNING: [8726520] St Petersburg, FL:
'Wrong Datum for this station: The correct Datum values are: MHHW, MHW, MTL, MSL, MLW, MLLW, STND'
05:33:56 WARNING: [8729210] Panama City Beach, FL:
'Wrong Datum for this station: The correct Datum values are: MHHW, MHW, MTL, MSL, MLW, MLLW, STND'
05:33:59 INFO: **************************** Models ****************************
05:33:59 INFO: 
[Reading url 1/10]: http://crow.marine.usf.edu:8080/thredds/dodsC/FVCOM-Nowcast-Agg.nc
05:34:07 INFO: 
[Reading url 2/10]: http://crow.marine.usf.edu:8080/thredds/dodsC/WFS_ROMS_NF_model/USF_Ocean_Circulation_Group_West_Florida_Shelf_Daily_ROMS_Nowcast_Forecast_Model_Data_best.ncd
05:34:11 INFO: 
[Reading url 3/10]: http://geoport-dev.whoi.edu/thredds/dodsC/estofs/atlantic
05:34:37 INFO: 
[Reading url 4/10]: http://geoport.whoi.edu/thredds/dodsC/coawst_4/use/fmrc/coawst_4_use_best.ncd
05:34:58 INFO: 
[Reading url 5/10]: http://omgsrv1.meas.ncsu.edu:8080/thredds/dodsC/fmrc/sabgom/SABGOM_Forecast_Model_Run_Collection_best.ncd
05:35:07 WARNING: Cannot get cube for: http://omgsrv1.meas.ncsu.edu:8080/thredds/dodsC/fmrc/sabgom/SABGOM_Forecast_Model_Run_Collection_best.ncd
istart must be different from istop! Got istart 0 and  istop 0
05:35:07 INFO: 
[Reading url 6/10]: http://oos.soest.hawaii.edu/thredds/dodsC/hioos/tide_pac
05:35:13 INFO: 
[Reading url 7/10]: http://oos.soest.hawaii.edu/thredds/dodsC/pacioos/hycom/global
05:35:17 INFO: 
[Reading url 8/10]: http://tds.marine.rutgers.edu/thredds/dodsC/roms/espresso/2013_da/his_Best/ESPRESSO_Real-Time_v2_History_Best_Available_best.ncd
05:35:24 INFO: 
[Reading url 9/10]: http://omgsrv1.meas.ncsu.edu:8080/thredds/dodsC/fmrc/us_east/US_East_Forecast_Model_Run_Collection_best.ncd
05:35:34 WARNING: Cannot get cube for: http://omgsrv1.meas.ncsu.edu:8080/thredds/dodsC/fmrc/us_east/US_East_Forecast_Model_Run_Collection_best.ncd
istart must be different from istop! Got istart 0 and  istop 0
05:35:34 INFO: 
[Reading url 10/10]: http://crow.marine.usf.edu:8080/thredds/dodsC/WFS_SWAN_NF_model/USF_Ocean_Circulation_Group_West_Florida_Shelf_Daily_SWAN_Nowcast_Forecast_Wave_Model_Data_best.ncd
05:35:35 WARNING: Cannot get cube for: http://crow.marine.usf.edu:8080/thredds/dodsC/WFS_SWAN_NF_model/USF_Ocean_Circulation_Group_West_Florida_Shelf_Daily_SWAN_Nowcast_Forecast_Wave_Model_Data_best.ncd
Cube does not contain ['sea_surface_height', 'sea_surface_elevation', 'sea_surface_height_above_geoid', 'sea_surface_height_above_sea_level', 'water_surface_height_above_reference_datum', 'sea_surface_height_above_reference_ellipsoid']
05:35:35 INFO: ******** Saving to file 2014-07-07/2014-07-07-ESTOFS.nc ********
05:35:39 INFO: [Water] Duck, NC
05:35:41 INFO: [Water] Oregon Inlet Marina, NC
05:35:47 INFO: [Water] Wrightsville Beach, NC
05:35:55 INFO: [Water] Springmaid Pier, SC
05:35:57 INFO: [Water] Oyster Landing (N Inlet Estuary), SC
05:35:57 WARNING: No data near (-79.925, 32.7817) max_dist=0.04.
05:35:58 INFO: [Water] Fernandina Beach, FL
05:36:00 INFO: [Water] Mayport (Bar Pilots Dock), FL
05:36:00 WARNING: No data near (-81.5583, 30.3867) max_dist=0.04.
05:36:00 WARNING: No data near (-81.6583, 30.32) max_dist=0.04.
05:36:00 WARNING: No data near (-81.6917, 30.1917) max_dist=0.04.
05:36:00 WARNING: No data near (-81.6283, 29.9783) max_dist=0.04.
05:36:00 WARNING: No data near (-81.5483, 29.8017) max_dist=0.04.
05:36:04 INFO: [Water] Trident Pier, FL
05:36:08 INFO: [Water] Lake Worth Pier, FL
05:36:16 INFO: [Water] Vaca Key, FL
05:36:21 INFO: [Water] Key West, FL
05:36:28 INFO: [Water] Naples, FL
05:36:28 WARNING: No data near (-81.8712, 26.6477) max_dist=0.04.
05:36:37 INFO: [Water] Port Manatee, FL
05:36:47 INFO: [Water] Cedar Key, FL
05:36:53 INFO: [Water] Apalachicola, FL
05:36:53 WARNING: No data near (-85.6669, 30.1523) max_dist=0.04.
05:36:53 WARNING: No data near (-87.2112, 30.4044) max_dist=0.04.
05:36:53 INFO: Finished processing [ESTOFS]: http://crow.marine.usf.edu:8080/thredds/dodsC/WFS_SWAN_NF_model/USF_Ocean_Circulation_Group_West_Florida_Shelf_Daily_SWAN_Nowcast_Forecast_Wave_Model_Data_best.ncd
05:36:53 INFO: ******** Saving to file 2014-07-07/2014-07-07-BTMPB.nc *********
05:36:53 WARNING: No data near (-75.7467, 36.1833) max_dist=0.04.
05:36:53 WARNING: No data near (-75.5483, 35.795) max_dist=0.04.
05:36:53 WARNING: No data near (-77.7867, 34.2133) max_dist=0.04.
05:36:53 WARNING: No data near (-78.9183, 33.655) max_dist=0.04.
05:36:53 WARNING: No data near (-79.1867, 33.3517) max_dist=0.04.
05:36:53 WARNING: No data near (-79.925, 32.7817) max_dist=0.04.
05:36:53 WARNING: No data near (-81.465, 30.6717) max_dist=0.04.
05:36:53 WARNING: No data near (-81.43, 30.3967) max_dist=0.04.
05:36:53 WARNING: No data near (-81.5583, 30.3867) max_dist=0.04.
05:36:53 WARNING: No data near (-81.6583, 30.32) max_dist=0.04.
05:36:53 WARNING: No data near (-81.6917, 30.1917) max_dist=0.04.
05:36:53 WARNING: No data near (-81.6283, 29.9783) max_dist=0.04.
05:36:53 WARNING: No data near (-81.5483, 29.8017) max_dist=0.04.
05:36:53 WARNING: No data near (-80.5931, 28.4158) max_dist=0.04.
05:36:53 WARNING: No data near (-80.0333, 26.6117) max_dist=0.04.
05:36:53 WARNING: No data near (-81.105, 24.7117) max_dist=0.04.
05:36:53 WARNING: No data near (-81.8079, 24.5557) max_dist=0.04.
05:36:53 WARNING: No data near (-81.8075, 26.1317) max_dist=0.04.
05:36:53 WARNING: No data near (-81.8712, 26.6477) max_dist=0.04.
05:36:53 WARNING: No data near (-82.5621, 27.6387) max_dist=0.04.
05:36:53 WARNING: No data near (-83.0317, 29.135) max_dist=0.04.
05:36:53 WARNING: No data near (-84.9817, 29.7267) max_dist=0.04.
05:36:53 WARNING: No data near (-85.6669, 30.1523) max_dist=0.04.
05:36:53 WARNING: No data near (-87.2112, 30.4044) max_dist=0.04.
05:36:53 INFO: Finished processing [BTMPB]: http://crow.marine.usf.edu:8080/thredds/dodsC/WFS_SWAN_NF_model/USF_Ocean_Circulation_Group_West_Florida_Shelf_Daily_SWAN_Nowcast_Forecast_Wave_Model_Data_best.ncd
05:36:53 INFO: ******** Saving to file 2014-07-07/2014-07-07-HYCOM.nc *********
05:36:59 INFO: [Land ] Duck, NC
05:37:04 INFO: [Water] Oregon Inlet Marina, NC
05:37:07 INFO: [Water] Wrightsville Beach, NC
05:37:07 WARNING: No data near (-78.9183, 33.655) max_dist=0.04.
05:37:12 INFO: [Land ] Oyster Landing (N Inlet Estuary), SC
05:37:15 INFO: [Land ] Charleston, SC
05:37:19 INFO: [Land ] Fernandina Beach, FL
05:37:25 INFO: [Land ] Mayport (Bar Pilots Dock), FL
05:37:29 INFO: [Land ] Dames Point, FL
05:37:32 INFO: [Land ] Southbank Riverwalk, St Johns River, FL
05:37:36 INFO: [Land ] I-295 Bridge, St Johns River, FL
05:37:43 INFO: [Land ] Red Bay Point, St Johns River, FL
05:37:43 WARNING: No data near (-81.5483, 29.8017) max_dist=0.04.
05:37:47 INFO: [Land ] Trident Pier, FL
05:37:50 INFO: [Water] Lake Worth Pier, FL
05:37:54 INFO: [Land ] Vaca Key, FL
05:37:57 INFO: [Land ] Key West, FL
05:37:57 WARNING: No data near (-81.8075, 26.1317) max_dist=0.04.
05:38:01 INFO: [Land ] Fort Myers, FL
05:38:06 INFO: [Land ] Port Manatee, FL
05:38:09 INFO: [Land ] Cedar Key, FL
05:38:13 INFO: [Land ] Apalachicola, FL
05:38:17 INFO: [Land ] Panama City, FL
05:38:21 INFO: [Land ] Pensacola, FL
05:38:21 INFO: Finished processing [HYCOM]: http://crow.marine.usf.edu:8080/thredds/dodsC/WFS_SWAN_NF_model/USF_Ocean_Circulation_Group_West_Florida_Shelf_Daily_SWAN_Nowcast_Forecast_Wave_Model_Data_best.ncd
05:38:21 INFO: ******* Saving to file 2014-07-07/2014-07-07-USF_ROMS.nc *******
05:38:21 WARNING: No data near (-75.7467, 36.1833) max_dist=0.04.
05:38:21 WARNING: No data near (-75.5483, 35.795) max_dist=0.04.
05:38:21 WARNING: No data near (-77.7867, 34.2133) max_dist=0.04.
05:38:21 WARNING: No data near (-78.9183, 33.655) max_dist=0.04.
05:38:21 WARNING: No data near (-79.1867, 33.3517) max_dist=0.04.
05:38:21 WARNING: No data near (-79.925, 32.7817) max_dist=0.04.
05:38:21 WARNING: No data near (-81.465, 30.6717) max_dist=0.04.
05:38:21 WARNING: No data near (-81.43, 30.3967) max_dist=0.04.
05:38:21 WARNING: No data near (-81.5583, 30.3867) max_dist=0.04.
05:38:21 WARNING: No data near (-81.6583, 30.32) max_dist=0.04.
05:38:21 WARNING: No data near (-81.6917, 30.1917) max_dist=0.04.
05:38:21 WARNING: No data near (-81.6283, 29.9783) max_dist=0.04.
05:38:21 WARNING: No data near (-81.5483, 29.8017) max_dist=0.04.
05:38:21 WARNING: No data near (-80.5931, 28.4158) max_dist=0.04.
05:38:21 WARNING: No data near (-80.0333, 26.6117) max_dist=0.04.
05:38:21 WARNING: No data near (-81.105, 24.7117) max_dist=0.04.
05:38:21 WARNING: No data near (-81.8079, 24.5557) max_dist=0.04.
05:38:22 INFO: [Water] Naples, FL
05:38:23 INFO: [Water] Fort Myers, FL
05:38:26 INFO: [Water] Port Manatee, FL
05:38:29 INFO: [Water] Cedar Key, FL
05:38:31 INFO: [Water] Apalachicola, FL
05:38:33 INFO: [Water] Panama City, FL
05:38:33 WARNING: No data near (-87.2112, 30.4044) max_dist=0.04.
05:38:38 INFO: Finished processing [USF_ROMS]: http://crow.marine.usf.edu:8080/thredds/dodsC/WFS_SWAN_NF_model/USF_Ocean_Circulation_Group_West_Florida_Shelf_Daily_SWAN_Nowcast_Forecast_Wave_Model_Data_best.ncd
05:38:38 INFO: ****** Saving to file 2014-07-07/2014-07-07-USF_FVCOM.nc *******
05:38:38 WARNING: No data near (-75.7467, 36.1833) max_dist=0.04.
05:38:38 WARNING: No data near (-75.5483, 35.795) max_dist=0.04.
05:38:38 WARNING: No data near (-77.7867, 34.2133) max_dist=0.04.
05:38:38 WARNING: No data near (-78.9183, 33.655) max_dist=0.04.
05:38:38 WARNING: No data near (-79.1867, 33.3517) max_dist=0.04.
05:38:38 WARNING: No data near (-79.925, 32.7817) max_dist=0.04.
05:38:38 WARNING: No data near (-81.465, 30.6717) max_dist=0.04.
05:38:38 WARNING: No data near (-81.43, 30.3967) max_dist=0.04.
05:38:38 WARNING: No data near (-81.5583, 30.3867) max_dist=0.04.
05:38:38 WARNING: No data near (-81.6583, 30.32) max_dist=0.04.
05:38:38 WARNING: No data near (-81.6917, 30.1917) max_dist=0.04.
05:38:38 WARNING: No data near (-81.6283, 29.9783) max_dist=0.04.
05:38:38 WARNING: No data near (-81.5483, 29.8017) max_dist=0.04.
05:38:38 WARNING: No data near (-80.5931, 28.4158) max_dist=0.04.
05:38:38 WARNING: No data near (-80.0333, 26.6117) max_dist=0.04.
05:38:46 INFO: [Water] Vaca Key, FL
05:38:55 INFO: [Water] Key West, FL
05:39:03 INFO: [Water] Naples, FL
05:39:11 INFO: [Water] Fort Myers, FL
05:39:20 INFO: [Water] Port Manatee, FL
05:39:23 INFO: [Water] Cedar Key, FL
05:39:31 INFO: [Water] Apalachicola, FL
05:39:31 WARNING: No data near (-85.6669, 30.1523) max_dist=0.04.
05:39:31 WARNING: No data near (-87.2112, 30.4044) max_dist=0.04.
05:39:31 INFO: Finished processing [USF_FVCOM]: http://crow.marine.usf.edu:8080/thredds/dodsC/WFS_SWAN_NF_model/USF_Ocean_Circulation_Group_West_Florida_Shelf_Daily_SWAN_Nowcast_Forecast_Wave_Model_Data_best.ncd
05:39:31 INFO: ******* Saving to file 2014-07-07/2014-07-07-COAWST_4.nc *******
05:39:37 INFO: [Land ] Duck, NC
05:39:50 INFO: [Water] Oregon Inlet Marina, NC
05:39:56 INFO: [Water] Wrightsville Beach, NC
05:40:07 INFO: [Water] Springmaid Pier, SC
05:40:13 INFO: [Land ] Oyster Landing (N Inlet Estuary), SC
05:40:19 INFO: [Land ] Charleston, SC
05:40:25 INFO: [Land ] Fernandina Beach, FL
05:40:31 INFO: [Land ] Mayport (Bar Pilots Dock), FL
05:40:37 INFO: [Land ] Dames Point, FL
05:40:43 INFO: [Land ] Southbank Riverwalk, St Johns River, FL
05:40:49 INFO: [Land ] I-295 Bridge, St Johns River, FL
05:40:54 INFO: [Land ] Red Bay Point, St Johns River, FL
05:41:00 INFO: [Land ] Racy Point, St Johns River, FL
05:41:07 INFO: [Land ] Trident Pier, FL
05:41:18 INFO: [Water] Lake Worth Pier, FL
05:41:24 INFO: [Land ] Vaca Key, FL
05:41:36 INFO: [Water] Key West, FL
05:41:42 INFO: [Land ] Naples, FL
05:41:48 INFO: [Land ] Fort Myers, FL
05:41:55 INFO: [Land ] Port Manatee, FL
05:42:06 INFO: [Water] Cedar Key, FL
05:42:12 INFO: [Water] Apalachicola, FL
05:42:18 INFO: [Water] Panama City, FL
05:42:24 INFO: [Water] Pensacola, FL
05:43:12 INFO: Finished processing [COAWST_4]: http://crow.marine.usf.edu:8080/thredds/dodsC/WFS_SWAN_NF_model/USF_Ocean_Circulation_Group_West_Florida_Shelf_Daily_SWAN_Nowcast_Forecast_Wave_Model_Data_best.ncd
05:43:12 INFO: ******* Saving to file 2014-07-07/2014-07-07-ESPRESSO.nc *******
05:43:15 INFO: [Land ] Duck, NC
05:43:17 INFO: [Water] Oregon Inlet Marina, NC
05:43:17 WARNING: No data near (-77.7867, 34.2133) max_dist=0.04.
05:43:17 WARNING: No data near (-78.9183, 33.655) max_dist=0.04.
05:43:17 WARNING: No data near (-79.1867, 33.3517) max_dist=0.04.
05:43:17 WARNING: No data near (-79.925, 32.7817) max_dist=0.04.
05:43:17 WARNING: No data near (-81.465, 30.6717) max_dist=0.04.
05:43:17 WARNING: No data near (-81.43, 30.3967) max_dist=0.04.
05:43:17 WARNING: No data near (-81.5583, 30.3867) max_dist=0.04.
05:43:17 WARNING: No data near (-81.6583, 30.32) max_dist=0.04.
05:43:17 WARNING: No data near (-81.6917, 30.1917) max_dist=0.04.
05:43:17 WARNING: No data near (-81.6283, 29.9783) max_dist=0.04.
05:43:17 WARNING: No data near (-81.5483, 29.8017) max_dist=0.04.
05:43:17 WARNING: No data near (-80.5931, 28.4158) max_dist=0.04.
05:43:17 WARNING: No data near (-80.0333, 26.6117) max_dist=0.04.
05:43:17 WARNING: No data near (-81.105, 24.7117) max_dist=0.04.
05:43:17 WARNING: No data near (-81.8079, 24.5557) max_dist=0.04.
05:43:17 WARNING: No data near (-81.8075, 26.1317) max_dist=0.04.
05:43:17 WARNING: No data near (-81.8712, 26.6477) max_dist=0.04.
05:43:17 WARNING: No data near (-82.5621, 27.6387) max_dist=0.04.
05:43:17 WARNING: No data near (-83.0317, 29.135) max_dist=0.04.
05:43:17 WARNING: No data near (-84.9817, 29.7267) max_dist=0.04.
05:43:17 WARNING: No data near (-85.6669, 30.1523) max_dist=0.04.
05:43:17 WARNING: No data near (-87.2112, 30.4044) max_dist=0.04.
05:43:19 INFO: Finished processing [ESPRESSO]: http://crow.marine.usf.edu:8080/thredds/dodsC/WFS_SWAN_NF_model/USF_Ocean_Circulation_Group_West_Florida_Shelf_Daily_SWAN_Nowcast_Forecast_Wave_Model_Data_best.ncd
05:43:20 WARNING: /home/filipe/miniconda/envs/ioos/lib/python2.7/site-packages/pandas/util/decorators.py:81: FutureWarning: the 'cols' keyword is deprecated, use 'subset' instead
  warnings.warn(msg, FutureWarning)

05:45:06 WARNING: /home/filipe/miniconda/envs/ioos/lib/python2.7/site-packages/matplotlib/pyplot.py:424: RuntimeWarning: More than 20 figures have been opened. Figures created through the pyplot interface (`matplotlib.pyplot.figure`) are retained until explicitly closed and may consume too much memory. (To control this warning, see the rcParam `figure.max_open_warning`).
  max_open_warning, RuntimeWarning)

05:45:08 INFO: 13.95 minutes
05:45:08 INFO: EOF
