06:06:21 INFO: *********************** Run information ************************
06:06:21 INFO: Run date: 2015-01-09 21:06:21
06:06:21 INFO: Download start: 2014-06-30 12:00:00
06:06:21 INFO: Download stop: 2014-07-07 12:00:00
06:06:21 INFO: Bounding box: -87.40, 24.25,-74.70, 36.70
06:06:21 INFO: *********************** Software version ***********************
06:06:21 INFO: Iris version: 1.8.0-DEV
06:06:21 INFO: owslib version: 0.8-dev
06:06:21 INFO: pyoos version: 0.6.2
06:06:25 INFO: ********************* Catalog information **********************
06:06:25 INFO: URL: http://www.ngdc.noaa.gov/geoportal/csw
06:06:25 INFO: CSW version: 2.0.2
06:06:25 INFO: Number of datasets available: 9
06:06:25 INFO: *************************** CSW URLs ***************************
06:06:25 INFO: USF FVCOM - Nowcast Aggregation
06:06:25 INFO: ROMS/TOMS 3.0 - New Floria Shelf Application
06:06:25 INFO: ROMS/TOMS 3.0 - South-Atlantic Bight and Gulf of Mexico
06:06:25 INFO: COAWST Forecast System : USGS : US East Coast and Gulf of Mexico (Experimental)
06:06:25 INFO: ROMS ESPRESSO Real-Time Operational IS4DVAR Forecast System Version 2 (NEW) 2013-present FMRC History (Best)
06:06:25 INFO: Barotropic Tide Model for the Pacific Basin
06:06:25 INFO: HYbrid Coordinate Ocean Model (HYCOM): Global
06:06:25 INFO: ESTOFS Storm Surge Model - Atlantic - v1.0.0 - NOAA - NCEP - ADCIRC
06:06:25 INFO: NECOFS GOM3 Wave - Northeast US - Latest Forecast
06:06:25 INFO: *************************** DAP URLs ***************************
06:06:25 INFO: http://crow.marine.usf.edu:8080/thredds/dodsC/FVCOM-Nowcast-Agg.nc.html
06:06:25 INFO: http://crow.marine.usf.edu:8080/thredds/dodsC/WFS_ROMS_NF_model/USF_Ocean_Circulation_Group_West_Florida_Shelf_Daily_ROMS_Nowcast_Forecast_Model_Data_best.ncd.html
06:06:25 INFO: http://geoport-dev.whoi.edu/thredds/dodsC/estofs/atlantic.html
06:06:25 INFO: http://geoport.whoi.edu/thredds/dodsC/coawst_4/use/fmrc/coawst_4_use_best.ncd.html
06:06:25 INFO: http://omgsrv1.meas.ncsu.edu:8080/thredds/dodsC/fmrc/sabgom/SABGOM_Forecast_Model_Run_Collection_best.ncd.html
06:06:25 INFO: http://oos.soest.hawaii.edu/thredds/dodsC/hioos/tide_pac.html
06:06:25 INFO: http://oos.soest.hawaii.edu/thredds/dodsC/pacioos/hycom/global.html
06:06:25 INFO: http://tds.marine.rutgers.edu/thredds/dodsC/roms/espresso/2013_da/his_Best/ESPRESSO_Real-Time_v2_History_Best_Available_best.ncd.html
06:06:25 INFO: http://www.smast.umassd.edu:8080/thredds/dodsC/FVCOM/NECOFS/Forecasts/NECOFS_WAVE_FORECAST.nc.html
06:06:25 INFO: *************************** SOS URLs ***************************
06:06:25 WARNING: USEAST not in the catalog
06:06:25 WARNING: USF_SWAN not in the catalog
06:06:31 INFO: ********************* Collector offerings **********************
06:06:31 INFO: NOAA.NOS.CO-OPS SOS: 1024 offerings
06:06:36 INFO: SOS URL request: http://opendap.co-ops.nos.noaa.gov/ioos-dif-sos/SOS?eventTime=2014-06-30T12%3A00%3A00Z&service=SOS&offering=urn%3Aioos%3Anetwork%3ANOAA.NOS.CO-OPS%3AWaterLevelActive&request=GetObservation&version=1.0.0&responseFormat=text%2Fcsv&featureOfInterest=BBOX%3A-87.4%2C24.25%2C-74.7%2C36.7&observedProperty=water_surface_height_above_reference_datum
06:06:45 INFO: ***************** Observations (station data) ******************
06:06:45 INFO: **** Downloading to file 2014-07-07/2014-07-07-OBS_DATA.nc *****
06:06:50 WARNING: [8654467] USCG Station Hatteras, NC:
'Wrong Datum for this station: The correct Datum values are: MHHW, MHW, MTL, MSL, MLW, MLLW, STND'
06:06:51 WARNING: [8656483] Beaufort, NC:
'Wrong Datum for this station: The correct Datum values are: MHHW, MHW, MTL, MSL, MLW, MLLW, STND'
06:06:52 WARNING: [8658120] Wilmington, NC:
'Wrong Datum for this station: The correct Datum values are: MHHW, MHW, MTL, MSL, MLW, MLLW, STND'
06:07:32 WARNING: [8726520] St Petersburg, FL:
'Wrong Datum for this station: The correct Datum values are: MHHW, MHW, MTL, MSL, MLW, MLLW, STND'
06:07:40 WARNING: [8729210] Panama City Beach, FL:
'Wrong Datum for this station: The correct Datum values are: MHHW, MHW, MTL, MSL, MLW, MLLW, STND'
06:07:42 INFO: ******************* Models (simulated data) ********************
06:07:42 INFO: 
[Reading url 1/10]: http://crow.marine.usf.edu:8080/thredds/dodsC/FVCOM-Nowcast-Agg.nc
06:07:43 WARNING: /home/filipe/.virtualenvs/iris/lib/python2.7/site-packages/iris/fileformats/cf.py:1006: UserWarning: Ignoring variable u'lat' referenced by variable u'hc': Dimensions (u'node',) do not span (u'nele',)
  warnings.warn(msg)

06:07:43 WARNING: /home/filipe/.virtualenvs/iris/lib/python2.7/site-packages/iris/fileformats/cf.py:1006: UserWarning: Ignoring variable u'lon' referenced by variable u'hc': Dimensions (u'node',) do not span (u'nele',)
  warnings.warn(msg)

06:07:43 WARNING: /home/filipe/.virtualenvs/iris/lib/python2.7/site-packages/iris/fileformats/cf.py:1006: UserWarning: Ignoring variable u'siglay' referenced by variable u'u': Dimensions (u'siglay', u'node') do not span (u'time', u'siglay', u'nele')
  warnings.warn(msg)

06:07:43 WARNING: /home/filipe/.virtualenvs/iris/lib/python2.7/site-packages/iris/fileformats/cf.py:1006: UserWarning: Ignoring variable u'siglay' referenced by variable u'v': Dimensions (u'siglay', u'node') do not span (u'time', u'siglay', u'nele')
  warnings.warn(msg)

06:07:44 WARNING: /home/filipe/.virtualenvs/iris/lib/python2.7/site-packages/iris/fileformats/_pyke_rules/compiled_krb/fc_rules_cf_fc.py:1442: UserWarning: Failed to create 'time' dimension coordinate: The points array must be strictly monotonic.
Gracefully creating 'time' auxiliary coordinate instead.
  error=e_msg))

06:07:44 WARNING: /home/filipe/.virtualenvs/iris/lib/python2.7/site-packages/iris/fileformats/_pyke_rules/compiled_krb/fc_rules_cf_fc.py:1301: UserWarning: Ignoring netCDF variable 'Itime2' invalid units 'msecs since 00:00:00'
  warnings.warn(msg.format(msg_name, msg_units))

06:07:50 INFO: 
[Reading url 2/10]: http://crow.marine.usf.edu:8080/thredds/dodsC/WFS_ROMS_NF_model/USF_Ocean_Circulation_Group_West_Florida_Shelf_Daily_ROMS_Nowcast_Forecast_Model_Data_best.ncd
06:07:51 WARNING: /home/filipe/.virtualenvs/iris/lib/python2.7/site-packages/iris/fileformats/cf.py:1040: UserWarning: Ignoring formula terms variable u'h' referenced by data variable u'v' via variable u's_rho': Dimensions (u'eta_rho', u'xi_rho') do not span (u'time', u's_rho', u'eta_v', u'xi_v')
  warnings.warn(msg)

06:07:51 WARNING: /home/filipe/.virtualenvs/iris/lib/python2.7/site-packages/iris/fileformats/cf.py:1040: UserWarning: Ignoring formula terms variable u'zeta' referenced by data variable u'v' via variable u's_rho': Dimensions (u'time', u'eta_rho', u'xi_rho') do not span (u'time', u's_rho', u'eta_v', u'xi_v')
  warnings.warn(msg)

06:07:51 WARNING: /home/filipe/.virtualenvs/iris/lib/python2.7/site-packages/iris/fileformats/cf.py:1040: UserWarning: Ignoring formula terms variable u'h' referenced by data variable u'u' via variable u's_rho': Dimensions (u'eta_rho', u'xi_rho') do not span (u'time', u's_rho', u'eta_u', u'xi_u')
  warnings.warn(msg)

06:07:51 WARNING: /home/filipe/.virtualenvs/iris/lib/python2.7/site-packages/iris/fileformats/cf.py:1040: UserWarning: Ignoring formula terms variable u'zeta' referenced by data variable u'u' via variable u's_rho': Dimensions (u'time', u'eta_rho', u'xi_rho') do not span (u'time', u's_rho', u'eta_u', u'xi_u')
  warnings.warn(msg)

06:07:51 WARNING: /home/filipe/.virtualenvs/iris/lib/python2.7/site-packages/iris/fileformats/_pyke_rules/compiled_krb/fc_rules_cf_fc.py:1396: UserWarning: Gracefully filling 'time' dimension coordinate masked points
  warnings.warn(msg.format(str(cf_coord_var.cf_name)))

06:07:51 WARNING: /home/filipe/.virtualenvs/iris/lib/python2.7/site-packages/iris/fileformats/_pyke_rules/compiled_krb/fc_rules_cf_fc.py:1301: UserWarning: Ignoring netCDF variable 'Cs_r' invalid units 'nondimensional'
  warnings.warn(msg.format(msg_name, msg_units))

06:07:51 WARNING: /home/filipe/.virtualenvs/iris/lib/python2.7/site-packages/iris/fileformats/_pyke_rules/compiled_krb/fc_rules_cf_fc.py:1301: UserWarning: Ignoring netCDF variable 's_rho' invalid units 'nondimensional'
  warnings.warn(msg.format(msg_name, msg_units))

06:07:51 WARNING: /home/filipe/.virtualenvs/iris/lib/python2.7/site-packages/iris/fileformats/netcdf.py:441: UserWarning: Unable to find coordinate for variable u'zeta'
  '{!r}'.format(name))

06:07:51 WARNING: /home/filipe/.virtualenvs/iris/lib/python2.7/site-packages/iris/fileformats/netcdf.py:441: UserWarning: Unable to find coordinate for variable u'h'
  '{!r}'.format(name))

06:07:51 WARNING: /home/filipe/.virtualenvs/iris/lib/python2.7/site-packages/iris/fileformats/netcdf.py:558: UserWarning: Unable to construct Ocean s-coordinate, generic form 1 factory due to insufficient source coordinates.
  warnings.warn('{}'.format(e))

06:07:51 WARNING: /home/filipe/.virtualenvs/iris/lib/python2.7/site-packages/iris/fileformats/netcdf.py:558: UserWarning: Invalid units: s coordinate u'ocean_s_coordinate_g1' must be dimensionless.
  warnings.warn('{}'.format(e))

06:07:51 WARNING: /home/filipe/.virtualenvs/iris/lib/python2.7/site-packages/iris/fileformats/_pyke_rules/compiled_krb/fc_rules_cf_fc.py:1301: UserWarning: Ignoring netCDF variable 'Cs_w' invalid units 'nondimensional'
  warnings.warn(msg.format(msg_name, msg_units))

06:07:51 WARNING: /home/filipe/.virtualenvs/iris/lib/python2.7/site-packages/iris/fileformats/_pyke_rules/compiled_krb/fc_rules_cf_fc.py:1301: UserWarning: Ignoring netCDF variable 's_w' invalid units 'nondimensional'
  warnings.warn(msg.format(msg_name, msg_units))

06:07:51 WARNING: /home/filipe/.virtualenvs/iris/lib/python2.7/site-packages/iris/fileformats/_pyke_rules/compiled_krb/fc_rules_cf_fc.py:1301: UserWarning: Ignoring netCDF variable 'salt' invalid units 'PSU'
  warnings.warn(msg.format(msg_name, msg_units))

06:07:53 INFO: 
[Reading url 3/10]: http://geoport-dev.whoi.edu/thredds/dodsC/estofs/atlantic
06:07:54 WARNING: /home/filipe/.virtualenvs/iris/lib/python2.7/site-packages/iris/fileformats/_pyke_rules/compiled_krb/fc_rules_cf_fc.py:1301: UserWarning: Ignoring netCDF variable 'nbdv' invalid units 'nondimensional'
  warnings.warn(msg.format(msg_name, msg_units))

06:07:54 WARNING: /home/filipe/.virtualenvs/iris/lib/python2.7/site-packages/iris/fileformats/_pyke_rules/compiled_krb/fc_rules_cf_fc.py:1301: UserWarning: Ignoring netCDF variable 'neta' invalid units 'nondimensional'
  warnings.warn(msg.format(msg_name, msg_units))

06:07:55 WARNING: /home/filipe/.virtualenvs/iris/lib/python2.7/site-packages/iris/fileformats/_pyke_rules/compiled_krb/fc_rules_cf_fc.py:1301: UserWarning: Ignoring netCDF variable 'ibtypee' invalid units 'nondimensional'
  warnings.warn(msg.format(msg_name, msg_units))

06:07:55 WARNING: /home/filipe/.virtualenvs/iris/lib/python2.7/site-packages/iris/fileformats/_pyke_rules/compiled_krb/fc_rules_cf_fc.py:1301: UserWarning: Ignoring netCDF variable 'nvell' invalid units 'nondimensional'
  warnings.warn(msg.format(msg_name, msg_units))

06:07:55 WARNING: /home/filipe/.virtualenvs/iris/lib/python2.7/site-packages/iris/fileformats/_pyke_rules/compiled_krb/fc_rules_cf_fc.py:1301: UserWarning: Ignoring netCDF variable 'ibtype' invalid units 'nondimensional'
  warnings.warn(msg.format(msg_name, msg_units))

06:07:55 WARNING: /home/filipe/.virtualenvs/iris/lib/python2.7/site-packages/iris/fileformats/_pyke_rules/compiled_krb/fc_rules_cf_fc.py:1301: UserWarning: Ignoring netCDF variable 'nbvv' invalid units 'nondimensional'
  warnings.warn(msg.format(msg_name, msg_units))

06:07:55 WARNING: /home/filipe/.virtualenvs/iris/lib/python2.7/site-packages/iris/fileformats/_pyke_rules/compiled_krb/fc_rules_cf_fc.py:1301: UserWarning: Ignoring netCDF variable 'nvel' invalid units 'nondimensional'
  warnings.warn(msg.format(msg_name, msg_units))

06:07:55 WARNING: /home/filipe/.virtualenvs/iris/lib/python2.7/site-packages/iris/fileformats/_pyke_rules/compiled_krb/fc_rules_cf_fc.py:1301: UserWarning: Ignoring netCDF variable 'nvdll' invalid units 'nondimensional'
  warnings.warn(msg.format(msg_name, msg_units))

06:08:17 INFO: 
[Reading url 4/10]: http://geoport.whoi.edu/thredds/dodsC/coawst_4/use/fmrc/coawst_4_use_best.ncd
06:08:41 INFO: 
[Reading url 5/10]: http://omgsrv1.meas.ncsu.edu:8080/thredds/dodsC/fmrc/sabgom/SABGOM_Forecast_Model_Run_Collection_best.ncd
06:08:43 WARNING: /home/filipe/.virtualenvs/iris/lib/python2.7/site-packages/iris/fileformats/_pyke_rules/compiled_krb/fc_rules_cf_fc.py:1301: UserWarning: Ignoring netCDF variable 'chlorophyll' invalid units 'milligrams_chlorophyll meter-3'
  warnings.warn(msg.format(msg_name, msg_units))

06:08:43 WARNING: /home/filipe/.virtualenvs/iris/lib/python2.7/site-packages/iris/fileformats/_pyke_rules/compiled_krb/fc_rules_cf_fc.py:1301: UserWarning: Ignoring netCDF variable 'phytoplankton' invalid units 'millimole_nitrogen meter-3'
  warnings.warn(msg.format(msg_name, msg_units))

06:08:43 WARNING: /home/filipe/.virtualenvs/iris/lib/python2.7/site-packages/iris/fileformats/_pyke_rules/compiled_krb/fc_rules_cf_fc.py:1301: UserWarning: Ignoring netCDF variable 'NO3' invalid units 'millimole_N03 meter-3'
  warnings.warn(msg.format(msg_name, msg_units))

06:08:43 WARNING: /home/filipe/.virtualenvs/iris/lib/python2.7/site-packages/iris/fileformats/_pyke_rules/compiled_krb/fc_rules_cf_fc.py:1301: UserWarning: Ignoring netCDF variable 'zooplankton' invalid units 'millimole_nitrogen meter-3'
  warnings.warn(msg.format(msg_name, msg_units))

06:08:43 WARNING: /home/filipe/.virtualenvs/iris/lib/python2.7/site-packages/iris/fileformats/_pyke_rules/compiled_krb/fc_rules_cf_fc.py:1301: UserWarning: Ignoring netCDF variable 'NH4' invalid units 'millimole_NH4 meter-3'
  warnings.warn(msg.format(msg_name, msg_units))

06:08:50 WARNING: Cannot get cube for: http://omgsrv1.meas.ncsu.edu:8080/thredds/dodsC/fmrc/sabgom/SABGOM_Forecast_Model_Run_Collection_best.ncd
istart must be different from istop! Got istart 0 and  istop 0
06:08:50 INFO: 
[Reading url 6/10]: http://oos.soest.hawaii.edu/thredds/dodsC/hioos/tide_pac
06:08:55 WARNING: Cannot get cube for: http://oos.soest.hawaii.edu/thredds/dodsC/hioos/tide_pac
The points array must be strictly monotonic.
06:08:55 INFO: 
[Reading url 7/10]: http://oos.soest.hawaii.edu/thredds/dodsC/pacioos/hycom/global
06:09:11 WARNING: Cannot get cube for: http://oos.soest.hawaii.edu/thredds/dodsC/pacioos/hycom/global
The points array must be strictly monotonic.
06:09:11 INFO: 
[Reading url 8/10]: http://tds.marine.rutgers.edu/thredds/dodsC/roms/espresso/2013_da/his_Best/ESPRESSO_Real-Time_v2_History_Best_Available_best.ncd
06:09:18 INFO: 
[Reading url 9/10]: http://omgsrv1.meas.ncsu.edu:8080/thredds/dodsC/fmrc/us_east/US_East_Forecast_Model_Run_Collection_best.ncd
06:09:20 WARNING: /home/filipe/.virtualenvs/iris/lib/python2.7/site-packages/iris/fileformats/netcdf.py:558: UserWarning: Unable to construct Ocean s-coordinate, generic form 2 factory due to insufficient source coordinates.
  warnings.warn('{}'.format(e))

06:09:29 WARNING: Cannot get cube for: http://omgsrv1.meas.ncsu.edu:8080/thredds/dodsC/fmrc/us_east/US_East_Forecast_Model_Run_Collection_best.ncd
istart must be different from istop! Got istart 0 and  istop 0
06:09:29 INFO: 
[Reading url 10/10]: http://crow.marine.usf.edu:8080/thredds/dodsC/WFS_SWAN_NF_model/USF_Ocean_Circulation_Group_West_Florida_Shelf_Daily_SWAN_Nowcast_Forecast_Wave_Model_Data_best.ncd
06:09:30 WARNING: /home/filipe/.virtualenvs/iris/lib/python2.7/site-packages/iris/fileformats/_pyke_rules/compiled_krb/fc_rules_cf_fc.py:1301: UserWarning: Ignoring netCDF variable 'Itime2' invalid units 'msec since 00:00:00'
  warnings.warn(msg.format(msg_name, msg_units))

06:09:30 WARNING: Cannot get cube for: http://crow.marine.usf.edu:8080/thredds/dodsC/WFS_SWAN_NF_model/USF_Ocean_Circulation_Group_West_Florida_Shelf_Daily_SWAN_Nowcast_Forecast_Wave_Model_Data_best.ncd
Cube does not contain ['sea_surface_height', 'sea_surface_elevation', 'sea_surface_height_above_geoid', 'sea_surface_height_above_sea_level', 'water_surface_height_above_reference_datum', 'sea_surface_height_above_reference_ellipsoid']
06:09:30 INFO: ******* Saving to file 2014-07-07/2014-07-07-USF_ROMS.nc *******
06:09:30 WARNING: No data found for (-75.7467,36.1833) using max_dist=0.04.
06:09:30 WARNING: No data found for (-75.5483,35.795) using max_dist=0.04.
06:09:30 WARNING: No data found for (-77.7867,34.2133) using max_dist=0.04.
06:09:30 WARNING: No data found for (-78.9183,33.655) using max_dist=0.04.
06:09:30 WARNING: No data found for (-79.1867,33.3517) using max_dist=0.04.
06:09:30 WARNING: No data found for (-79.925,32.7817) using max_dist=0.04.
06:09:30 WARNING: No data found for (-81.465,30.6717) using max_dist=0.04.
06:09:30 WARNING: No data found for (-81.5583,30.3867) using max_dist=0.04.
06:09:30 WARNING: No data found for (-81.6583,30.32) using max_dist=0.04.
06:09:30 WARNING: No data found for (-81.6917,30.1917) using max_dist=0.04.
06:09:30 WARNING: No data found for (-81.6283,29.9783) using max_dist=0.04.
06:09:30 WARNING: No data found for (-81.5483,29.8017) using max_dist=0.04.
06:09:30 WARNING: No data found for (-80.5931,28.4158) using max_dist=0.04.
06:09:30 WARNING: No data found for (-80.0333,26.6117) using max_dist=0.04.
06:09:30 WARNING: No data found for (-81.105,24.7117) using max_dist=0.04.
06:09:30 WARNING: No data found for (-81.8079,24.5557) using max_dist=0.04.
06:09:31 INFO: [Found Water] Naples, FL
06:09:32 INFO: [Found Water] Fort Myers, FL
06:09:34 INFO: [Found Water] Port Manatee, FL
06:09:37 INFO: [Found Water] Cedar Key, FL
06:09:38 INFO: [Found Water] Apalachicola, FL
06:09:40 INFO: [Found Water] Panama City, FL
06:09:40 WARNING: No data found for (-87.2112,30.4044) using max_dist=0.04.
06:09:46 INFO: Finished processing [USF_ROMS]: http://crow.marine.usf.edu:8080/thredds/dodsC/WFS_SWAN_NF_model/USF_Ocean_Circulation_Group_West_Florida_Shelf_Daily_SWAN_Nowcast_Forecast_Wave_Model_Data_best.ncd
06:09:46 INFO: ****** Saving to file 2014-07-07/2014-07-07-USF_FVCOM.nc *******
06:09:46 WARNING: No data found for (-75.7467,36.1833) using max_dist=0.04.
06:09:46 WARNING: No data found for (-75.5483,35.795) using max_dist=0.04.
06:09:46 WARNING: No data found for (-77.7867,34.2133) using max_dist=0.04.
06:09:46 WARNING: No data found for (-78.9183,33.655) using max_dist=0.04.
06:09:46 WARNING: No data found for (-79.1867,33.3517) using max_dist=0.04.
06:09:46 WARNING: No data found for (-79.925,32.7817) using max_dist=0.04.
06:09:46 WARNING: No data found for (-81.465,30.6717) using max_dist=0.04.
06:09:46 WARNING: No data found for (-81.5583,30.3867) using max_dist=0.04.
06:09:46 WARNING: No data found for (-81.6583,30.32) using max_dist=0.04.
06:09:46 WARNING: No data found for (-81.6917,30.1917) using max_dist=0.04.
06:09:46 WARNING: No data found for (-81.6283,29.9783) using max_dist=0.04.
06:09:46 WARNING: No data found for (-81.5483,29.8017) using max_dist=0.04.
06:09:46 WARNING: No data found for (-80.5931,28.4158) using max_dist=0.04.
06:09:46 WARNING: No data found for (-80.0333,26.6117) using max_dist=0.04.
06:10:13 INFO: [Found Water] Vaca Key, FL
06:10:23 INFO: [Found Water] Key West, FL
06:10:45 INFO: [Found Water] Naples, FL
06:10:59 INFO: [Found Water] Fort Myers, FL
06:11:18 INFO: [Found Water] Port Manatee, FL
06:11:29 INFO: [Found Water] Cedar Key, FL
06:11:38 INFO: [Found Water] Apalachicola, FL
06:11:38 WARNING: No data found for (-85.6669,30.1523) using max_dist=0.04.
06:11:38 WARNING: No data found for (-87.2112,30.4044) using max_dist=0.04.
06:11:38 INFO: Finished processing [USF_FVCOM]: http://crow.marine.usf.edu:8080/thredds/dodsC/WFS_SWAN_NF_model/USF_Ocean_Circulation_Group_West_Florida_Shelf_Daily_SWAN_Nowcast_Forecast_Wave_Model_Data_best.ncd
06:11:38 INFO: ******* Saving to file 2014-07-07/2014-07-07-COAWST_4.nc *******
06:11:52 INFO: [Found Land] Duck, NC
06:12:02 INFO: [Found Water] Oregon Inlet Marina, NC
06:12:07 INFO: [Found Water] Wrightsville Beach, NC
06:12:17 INFO: [Found Water] Springmaid Pier, SC
06:12:22 INFO: [Found Land] Oyster Landing (N Inlet Estuary), SC
06:12:27 INFO: [Found Land] Charleston, SC
06:12:32 INFO: [Found Land] Fernandina Beach, FL
06:12:37 INFO: [Found Land] Dames Point, FL
06:12:42 INFO: [Found Land] Southbank Riverwalk, St Johns River, FL
06:12:46 INFO: [Found Land] I-295 Bridge, St Johns River, FL
06:12:51 INFO: [Found Land] Red Bay Point, St Johns River, FL
06:12:56 INFO: [Found Land] Racy Point, St Johns River, FL
06:13:01 INFO: [Found Land] Trident Pier, FL
06:13:12 INFO: [Found Water] Lake Worth Pier, FL
06:13:18 INFO: [Found Land] Vaca Key, FL
06:13:34 INFO: [Found Water] Key West, FL
06:13:40 INFO: [Found Land] Naples, FL
06:13:46 INFO: [Found Land] Fort Myers, FL
06:13:52 INFO: [Found Land] Port Manatee, FL
06:14:04 INFO: [Found Water] Cedar Key, FL
06:14:09 INFO: [Found Water] Apalachicola, FL
06:14:15 INFO: [Found Water] Panama City, FL
06:14:21 INFO: [Found Water] Pensacola, FL
06:15:11 INFO: Finished processing [COAWST_4]: http://crow.marine.usf.edu:8080/thredds/dodsC/WFS_SWAN_NF_model/USF_Ocean_Circulation_Group_West_Florida_Shelf_Daily_SWAN_Nowcast_Forecast_Wave_Model_Data_best.ncd
06:15:11 INFO: ******** Saving to file 2014-07-07/2014-07-07-ESTOFS.nc ********
06:15:18 INFO: [Found Water] Duck, NC
06:15:21 INFO: [Found Water] Oregon Inlet Marina, NC
06:15:29 INFO: [Found Water] Wrightsville Beach, NC
06:15:39 INFO: [Found Water] Springmaid Pier, SC
06:15:42 INFO: [Found Water] Oyster Landing (N Inlet Estuary), SC
06:15:42 WARNING: No data found for (-79.925,32.7817) using max_dist=0.04.
06:15:44 INFO: [Found Water] Fernandina Beach, FL
06:15:44 WARNING: No data found for (-81.5583,30.3867) using max_dist=0.04.
06:15:44 WARNING: No data found for (-81.6583,30.32) using max_dist=0.04.
06:15:44 WARNING: No data found for (-81.6917,30.1917) using max_dist=0.04.
06:15:44 WARNING: No data found for (-81.6283,29.9783) using max_dist=0.04.
06:15:44 WARNING: No data found for (-81.5483,29.8017) using max_dist=0.04.
06:15:50 INFO: [Found Water] Trident Pier, FL
06:15:55 INFO: [Found Water] Lake Worth Pier, FL
06:16:06 INFO: [Found Water] Vaca Key, FL
06:16:13 INFO: [Found Water] Key West, FL
06:16:21 INFO: [Found Water] Naples, FL
06:16:21 WARNING: No data found for (-81.8712,26.6477) using max_dist=0.04.
06:16:30 INFO: [Found Water] Port Manatee, FL
06:16:42 INFO: [Found Water] Cedar Key, FL
06:16:51 INFO: [Found Water] Apalachicola, FL
06:16:51 WARNING: No data found for (-85.6669,30.1523) using max_dist=0.04.
06:16:51 WARNING: No data found for (-87.2112,30.4044) using max_dist=0.04.
06:16:51 INFO: Finished processing [ESTOFS]: http://crow.marine.usf.edu:8080/thredds/dodsC/WFS_SWAN_NF_model/USF_Ocean_Circulation_Group_West_Florida_Shelf_Daily_SWAN_Nowcast_Forecast_Wave_Model_Data_best.ncd
06:16:51 INFO: ******* Saving to file 2014-07-07/2014-07-07-ESPRESSO.nc *******
06:16:58 INFO: [Found Land] Duck, NC
06:17:00 INFO: [Found Water] Oregon Inlet Marina, NC
06:17:00 WARNING: No data found for (-77.7867,34.2133) using max_dist=0.04.
06:17:00 WARNING: No data found for (-78.9183,33.655) using max_dist=0.04.
06:17:00 WARNING: No data found for (-79.1867,33.3517) using max_dist=0.04.
06:17:00 WARNING: No data found for (-79.925,32.7817) using max_dist=0.04.
06:17:00 WARNING: No data found for (-81.465,30.6717) using max_dist=0.04.
06:17:00 WARNING: No data found for (-81.5583,30.3867) using max_dist=0.04.
06:17:00 WARNING: No data found for (-81.6583,30.32) using max_dist=0.04.
06:17:00 WARNING: No data found for (-81.6917,30.1917) using max_dist=0.04.
06:17:00 WARNING: No data found for (-81.6283,29.9783) using max_dist=0.04.
06:17:00 WARNING: No data found for (-81.5483,29.8017) using max_dist=0.04.
06:17:00 WARNING: No data found for (-80.5931,28.4158) using max_dist=0.04.
06:17:00 WARNING: No data found for (-80.0333,26.6117) using max_dist=0.04.
06:17:00 WARNING: No data found for (-81.105,24.7117) using max_dist=0.04.
06:17:00 WARNING: No data found for (-81.8079,24.5557) using max_dist=0.04.
06:17:00 WARNING: No data found for (-81.8075,26.1317) using max_dist=0.04.
06:17:00 WARNING: No data found for (-81.8712,26.6477) using max_dist=0.04.
06:17:00 WARNING: No data found for (-82.5621,27.6387) using max_dist=0.04.
06:17:00 WARNING: No data found for (-83.0317,29.135) using max_dist=0.04.
06:17:00 WARNING: No data found for (-84.9817,29.7267) using max_dist=0.04.
06:17:00 WARNING: No data found for (-85.6669,30.1523) using max_dist=0.04.
06:17:00 WARNING: No data found for (-87.2112,30.4044) using max_dist=0.04.
06:17:02 INFO: Finished processing [ESPRESSO]: http://crow.marine.usf.edu:8080/thredds/dodsC/WFS_SWAN_NF_model/USF_Ocean_Circulation_Group_West_Florida_Shelf_Daily_SWAN_Nowcast_Forecast_Wave_Model_Data_best.ncd
06:17:02 WARNING: /home/filipe/.virtualenvs/iris/lib/python2.7/site-packages/pandas/util/decorators.py:81: FutureWarning: the 'cols' keyword is deprecated, use 'subset' instead
  warnings.warn(msg, FutureWarning)

06:17:20 WARNING: /home/filipe/.virtualenvs/iris/lib/python2.7/site-packages/matplotlib/pyplot.py:424: RuntimeWarning: More than 20 figures have been opened. Figures created through the pyplot interface (`matplotlib.pyplot.figure`) are retained until explicitly closed and may consume too much memory. (To control this warning, see the rcParam `figure.max_open_warning`).
  max_open_warning, RuntimeWarning)

06:17:29 INFO: 11.20 minutes
06:17:29 INFO: EOF
