07:07:06 INFO: *********************** Run information ************************
07:07:06 INFO: Run date: 2015-02-05 22:07:06
07:07:06 INFO: Download start: 2014-06-30 12:00:00
07:07:06 INFO: Download stop: 2014-07-07 12:00:00
07:07:06 INFO: Bounding box: -87.40, 24.25,-74.70, 36.70
07:07:06 INFO: *********************** Software version ***********************
07:07:06 INFO: Iris version: 1.7.2-DEV
07:07:06 INFO: owslib version: 0.8-dev
07:07:06 INFO: pyoos version: 0.6.2
07:07:09 INFO: ********************* Catalog information **********************
07:07:09 INFO: URL: http://www.ngdc.noaa.gov/geoportal/csw
07:07:09 INFO: CSW version: 2.0.2
07:07:09 INFO: Number of datasets available: 9
07:07:09 INFO: ***************************** CSW ******************************
07:07:09 INFO: USF FVCOM - Nowcast Aggregation
07:07:09 INFO: ROMS/TOMS 3.0 - New Floria Shelf Application
07:07:09 INFO: ROMS/TOMS 3.0 - South-Atlantic Bight and Gulf of Mexico
07:07:09 INFO: COAWST Forecast System : USGS : US East Coast and Gulf of Mexico (Experimental)
07:07:09 INFO: ROMS ESPRESSO Real-Time Operational IS4DVAR Forecast System Version 2 (NEW) 2013-present FMRC History (Best)
07:07:09 INFO: Barotropic Tide Model for the Pacific Basin
07:07:09 INFO: HYbrid Coordinate Ocean Model (HYCOM): Global
07:07:09 INFO: ESTOFS Storm Surge Model - Atlantic - v1.0.0 - NOAA - NCEP - ADCIRC
07:07:09 INFO: NECOFS GOM3 Wave - Northeast US - Latest Forecast
07:07:09 INFO: ***************************** DAP ******************************
07:07:09 INFO: http://crow.marine.usf.edu:8080/thredds/dodsC/FVCOM-Nowcast-Agg.nc.html
07:07:09 INFO: http://crow.marine.usf.edu:8080/thredds/dodsC/WFS_ROMS_NF_model/USF_Ocean_Circulation_Group_West_Florida_Shelf_Daily_ROMS_Nowcast_Forecast_Model_Data_best.ncd.html
07:07:09 INFO: http://geoport-dev.whoi.edu/thredds/dodsC/estofs/atlantic.html
07:07:09 INFO: http://geoport.whoi.edu/thredds/dodsC/coawst_4/use/fmrc/coawst_4_use_best.ncd.html
07:07:09 INFO: http://omgsrv1.meas.ncsu.edu:8080/thredds/dodsC/fmrc/sabgom/SABGOM_Forecast_Model_Run_Collection_best.ncd.html
07:07:09 INFO: http://oos.soest.hawaii.edu/thredds/dodsC/hioos/tide_pac.html
07:07:09 INFO: http://oos.soest.hawaii.edu/thredds/dodsC/pacioos/hycom/global.html
07:07:09 INFO: http://tds.marine.rutgers.edu/thredds/dodsC/roms/espresso/2013_da/his_Best/ESPRESSO_Real-Time_v2_History_Best_Available_best.ncd.html
07:07:09 INFO: http://www.smast.umassd.edu:8080/thredds/dodsC/FVCOM/NECOFS/Forecasts/NECOFS_WAVE_FORECAST.nc.html
07:07:09 INFO: ***************************** SOS ******************************
07:07:10 WARNING: USEAST not in the NGDC csw
07:07:10 WARNING: USF_SWAN not in the NGDC csw
07:07:28 WARNING: /home/filipe/miniconda/envs/SECOORA/lib/python2.7/site-packages/iris/fileformats/_pyke_rules/compiled_krb/fc_rules_cf_fc.py:1359: UserWarning: Failed to create 'time' dimension coordinate: The points array must be strictly monotonic.
Gracefully creating 'time' auxiliary coordinate instead.
  error=e_msg))

07:07:28 WARNING: Cannot get cube for: http://129.252.139.124/thredds/dodsC/fit.sispnj.met.nc
Cube does not contain ['sea_surface_height', 'sea_surface_elevation', 'sea_surface_height_above_geoid', 'sea_surface_height_above_sea_level', 'water_surface_height_above_reference_datum', 'sea_surface_height_above_reference_ellipsoid']
07:08:50 WARNING: Cannot get cube for: http://129.252.139.124/thredds/dodsC/usf.nfb.ngwlms.nc
Cube does not contain ['sea_surface_height', 'sea_surface_elevation', 'sea_surface_height_above_geoid', 'sea_surface_height_above_sea_level', 'water_surface_height_above_reference_datum', 'sea_surface_height_above_reference_ellipsoid']
07:10:45 WARNING: Cannot get cube for: http://129.252.139.124/thredds/dodsC/usf.c21.weatherpak.nc
Cube does not contain ['sea_surface_height', 'sea_surface_elevation', 'sea_surface_height_above_geoid', 'sea_surface_height_above_sea_level', 'water_surface_height_above_reference_datum', 'sea_surface_height_above_reference_ellipsoid']
07:13:41 WARNING: Cannot get cube for: http://129.252.139.124/thredds/dodsC/usf.c10.mcat.nc
Cube does not contain ['sea_surface_height', 'sea_surface_elevation', 'sea_surface_height_above_geoid', 'sea_surface_height_above_sea_level', 'water_surface_height_above_reference_datum', 'sea_surface_height_above_reference_ellipsoid']
07:13:55 WARNING: Cannot get cube for: http://129.252.139.124/thredds/dodsC/usf.c12.mcat.nc
Cube does not contain ['sea_surface_height', 'sea_surface_elevation', 'sea_surface_height_above_geoid', 'sea_surface_height_above_sea_level', 'water_surface_height_above_reference_datum', 'sea_surface_height_above_reference_ellipsoid']
07:14:04 WARNING: Cannot get cube for: http://129.252.139.124/thredds/dodsC/usf.c13.mcat.nc
Cube does not contain ['sea_surface_height', 'sea_surface_elevation', 'sea_surface_height_above_geoid', 'sea_surface_height_above_sea_level', 'water_surface_height_above_reference_datum', 'sea_surface_height_above_reference_ellipsoid']
07:14:18 WARNING: Cannot get cube for: http://129.252.139.124/thredds/dodsC/usf.c10.mcat_2011.nc
Cube does not contain ['sea_surface_height', 'sea_surface_elevation', 'sea_surface_height_above_geoid', 'sea_surface_height_above_sea_level', 'water_surface_height_above_reference_datum', 'sea_surface_height_above_reference_ellipsoid']
07:14:31 WARNING: Cannot get cube for: http://129.252.139.124/thredds/dodsC/usf.c12.mcat_2011.nc
Cube does not contain ['sea_surface_height', 'sea_surface_elevation', 'sea_surface_height_above_geoid', 'sea_surface_height_above_sea_level', 'water_surface_height_above_reference_datum', 'sea_surface_height_above_reference_ellipsoid']
07:14:41 WARNING: Cannot get cube for: http://129.252.139.124/thredds/dodsC/usf.c13.mcat_2011.nc
Cube does not contain ['sea_surface_height', 'sea_surface_elevation', 'sea_surface_height_above_geoid', 'sea_surface_height_above_sea_level', 'water_surface_height_above_reference_datum', 'sea_surface_height_above_reference_ellipsoid']
07:14:51 WARNING: Cannot get cube for: http://129.252.139.124/thredds/dodsC/carocoops.sun2.buoy.nc
Cube does not contain ['sea_surface_height', 'sea_surface_elevation', 'sea_surface_height_above_geoid', 'sea_surface_height_above_sea_level', 'water_surface_height_above_reference_datum', 'sea_surface_height_above_reference_ellipsoid']
07:15:02 WARNING: Cannot get cube for: http://129.252.139.124/thredds/dodsC/carocoops.frp2.buoy.nc
Cube does not contain ['sea_surface_height', 'sea_surface_elevation', 'sea_surface_height_above_geoid', 'sea_surface_height_above_sea_level', 'water_surface_height_above_reference_datum', 'sea_surface_height_above_reference_ellipsoid']
07:15:13 WARNING: Cannot get cube for: http://129.252.139.124/thredds/dodsC/carocoops.cap2.buoy.nc
Cube does not contain ['sea_surface_height', 'sea_surface_elevation', 'sea_surface_height_above_geoid', 'sea_surface_height_above_sea_level', 'water_surface_height_above_reference_datum', 'sea_surface_height_above_reference_ellipsoid']
07:15:28 WARNING: Cannot get cube for: http://129.252.139.124/thredds/dodsC/cormp.ilm3.buoy.nc
Cube does not contain ['sea_surface_height', 'sea_surface_elevation', 'sea_surface_height_above_geoid', 'sea_surface_height_above_sea_level', 'water_surface_height_above_reference_datum', 'sea_surface_height_above_reference_ellipsoid']
07:16:09 WARNING: Cannot get cube for: http://129.252.139.124/thredds/dodsC/cormp.ilm2.buoy.nc
Cube does not contain ['sea_surface_height', 'sea_surface_elevation', 'sea_surface_height_above_geoid', 'sea_surface_height_above_sea_level', 'water_surface_height_above_reference_datum', 'sea_surface_height_above_reference_ellipsoid']
07:16:12 WARNING: Cannot get cube for: http://129.252.139.124/thredds/dodsC/cormp.ilm1.buoy.nc
Cube does not contain ['sea_surface_height', 'sea_surface_elevation', 'sea_surface_height_above_geoid', 'sea_surface_height_above_sea_level', 'water_surface_height_above_reference_datum', 'sea_surface_height_above_reference_ellipsoid']
07:16:34 WARNING: Cannot get cube for: http://129.252.139.124/thredds/dodsC/cormp.lej3.buoy.nc
Cube does not contain ['sea_surface_height', 'sea_surface_elevation', 'sea_surface_height_above_geoid', 'sea_surface_height_above_sea_level', 'water_surface_height_above_reference_datum', 'sea_surface_height_above_reference_ellipsoid']
07:16:37 WARNING: /home/filipe/miniconda/envs/SECOORA/lib/python2.7/site-packages/iris/fileformats/_pyke_rules/compiled_krb/fc_rules_cf_fc.py:1196: UserWarning: Ignoring netCDF variable 'dissolved_oxygen_saturation' invalid units 'mg_L-1'
  warnings.warn(msg.format(msg_name, msg_units))

07:16:40 WARNING: /home/filipe/miniconda/envs/SECOORA/lib/python2.7/site-packages/iris/fileformats/_pyke_rules/compiled_krb/fc_rules_cf_fc.py:1196: UserWarning: Ignoring netCDF variable 'dissolved_oxygen' invalid units 'mg_L-1'
  warnings.warn(msg.format(msg_name, msg_units))

07:16:40 WARNING: /home/filipe/miniconda/envs/SECOORA/lib/python2.7/site-packages/iris/fileformats/_pyke_rules/compiled_krb/fc_rules_cf_fc.py:1196: UserWarning: Ignoring netCDF variable 'cdom' invalid units 'QSDE'
  warnings.warn(msg.format(msg_name, msg_units))

07:16:40 WARNING: /home/filipe/miniconda/envs/SECOORA/lib/python2.7/site-packages/iris/fileformats/_pyke_rules/compiled_krb/fc_rules_cf_fc.py:1196: UserWarning: Ignoring netCDF variable 'turbidity' invalid units 'ntu'
  warnings.warn(msg.format(msg_name, msg_units))

07:16:40 WARNING: /home/filipe/miniconda/envs/SECOORA/lib/python2.7/site-packages/iris/fileformats/_pyke_rules/compiled_krb/fc_rules_cf_fc.py:1196: UserWarning: Ignoring netCDF variable 'conductivity' invalid units 'mS_cm-1'
  warnings.warn(msg.format(msg_name, msg_units))

07:16:40 WARNING: Cannot get cube for: http://129.252.139.124/thredds/dodsC/sccf.gulfofmexico.wq.nc
Cube does not contain ['sea_surface_height', 'sea_surface_elevation', 'sea_surface_height_above_geoid', 'sea_surface_height_above_sea_level', 'water_surface_height_above_reference_datum', 'sea_surface_height_above_reference_ellipsoid']
07:16:44 WARNING: /home/filipe/miniconda/envs/SECOORA/lib/python2.7/site-packages/iris/fileformats/_pyke_rules/compiled_krb/fc_rules_cf_fc.py:1196: UserWarning: Ignoring netCDF variable 'nitrate' invalid units 'uM'
  warnings.warn(msg.format(msg_name, msg_units))

07:16:44 WARNING: Cannot get cube for: http://129.252.139.124/thredds/dodsC/sccf.shellpoint.wq.nc
Cube does not contain ['sea_surface_height', 'sea_surface_elevation', 'sea_surface_height_above_geoid', 'sea_surface_height_above_sea_level', 'water_surface_height_above_reference_datum', 'sea_surface_height_above_reference_ellipsoid']
07:16:51 WARNING: Cannot get cube for: http://129.252.139.124/thredds/dodsC/sccf.redfishpass.wq.nc
Cube does not contain ['sea_surface_height', 'sea_surface_elevation', 'sea_surface_height_above_geoid', 'sea_surface_height_above_sea_level', 'water_surface_height_above_reference_datum', 'sea_surface_height_above_reference_ellipsoid']
07:17:00 WARNING: Cannot get cube for: http://129.252.139.124/thredds/dodsC/sccf.tarponbay.wq.nc
Cube does not contain ['sea_surface_height', 'sea_surface_elevation', 'sea_surface_height_above_geoid', 'sea_surface_height_above_sea_level', 'water_surface_height_above_reference_datum', 'sea_surface_height_above_reference_ellipsoid']
07:17:05 WARNING: Cannot get cube for: http://129.252.139.124/thredds/dodsC/sccf.fortmyers.wq.nc
Cube does not contain ['sea_surface_height', 'sea_surface_elevation', 'sea_surface_height_above_geoid', 'sea_surface_height_above_sea_level', 'water_surface_height_above_reference_datum', 'sea_surface_height_above_reference_ellipsoid']
07:17:21 WARNING: /home/filipe/miniconda/envs/SECOORA/lib/python2.7/site-packages/iris/fileformats/_pyke_rules/compiled_krb/fc_rules_cf_fc.py:1196: UserWarning: Ignoring netCDF variable 'conductivity_2' invalid units 'mS_cm-1'
  warnings.warn(msg.format(msg_name, msg_units))

07:17:51 WARNING: Cannot get cube for: http://129.252.139.124/thredds/dodsC/fldep.redbaypoint..nc
istart must be different from istop! Got istart 43 and  istop 43
07:19:51 WARNING: Cannot get cube for: http://129.252.139.124/thredds/dodsC/lbhmc.2ndave.pier.nc
Cube does not contain ['sea_surface_height', 'sea_surface_elevation', 'sea_surface_height_above_geoid', 'sea_surface_height_above_sea_level', 'water_surface_height_above_reference_datum', 'sea_surface_height_above_reference_ellipsoid']
07:20:02 WARNING: /home/filipe/miniconda/envs/SECOORA/lib/python2.7/site-packages/iris/fileformats/_pyke_rules/compiled_krb/fc_rules_cf_fc.py:1196: UserWarning: Ignoring netCDF variable 'turbidity_2' invalid units 'ntu'
  warnings.warn(msg.format(msg_name, msg_units))

07:20:02 WARNING: /home/filipe/miniconda/envs/SECOORA/lib/python2.7/site-packages/iris/fileformats/_pyke_rules/compiled_krb/fc_rules_cf_fc.py:1196: UserWarning: Ignoring netCDF variable 'dissolved_oxygen_2' invalid units 'mg_L-1'
  warnings.warn(msg.format(msg_name, msg_units))

07:20:02 WARNING: Cannot get cube for: http://129.252.139.124/thredds/dodsC/lbhmc.cherrygrove.pier.nc
Cube does not contain ['sea_surface_height', 'sea_surface_elevation', 'sea_surface_height_above_geoid', 'sea_surface_height_above_sea_level', 'water_surface_height_above_reference_datum', 'sea_surface_height_above_reference_ellipsoid']
07:20:11 WARNING: Cannot get cube for: http://129.252.139.124/thredds/dodsC/lbhmc.apachepier.pier.nc
Cube does not contain ['sea_surface_height', 'sea_surface_elevation', 'sea_surface_height_above_geoid', 'sea_surface_height_above_sea_level', 'water_surface_height_above_reference_datum', 'sea_surface_height_above_reference_ellipsoid']
07:20:18 WARNING: Cannot get cube for: http://129.252.139.124/thredds/dodsC/enp.wiwf1.met.nc
Cube does not contain ['sea_surface_height', 'sea_surface_elevation', 'sea_surface_height_above_geoid', 'sea_surface_height_above_sea_level', 'water_surface_height_above_reference_datum', 'sea_surface_height_above_reference_ellipsoid']
07:20:25 WARNING: Cannot get cube for: http://129.252.139.124/thredds/dodsC/enp.lbrf1.met.nc
Cube does not contain ['sea_surface_height', 'sea_surface_elevation', 'sea_surface_height_above_geoid', 'sea_surface_height_above_sea_level', 'water_surface_height_above_reference_datum', 'sea_surface_height_above_reference_ellipsoid']
07:20:31 WARNING: Cannot get cube for: http://129.252.139.124/thredds/dodsC/enp.bobf1.met.nc
Cube does not contain ['sea_surface_height', 'sea_surface_elevation', 'sea_surface_height_above_geoid', 'sea_surface_height_above_sea_level', 'water_surface_height_above_reference_datum', 'sea_surface_height_above_reference_ellipsoid']
07:20:36 WARNING: Cannot get cube for: http://129.252.139.124/thredds/dodsC/enp.trrf1.met.nc
Cube does not contain ['sea_surface_height', 'sea_surface_elevation', 'sea_surface_height_above_geoid', 'sea_surface_height_above_sea_level', 'water_surface_height_above_reference_datum', 'sea_surface_height_above_reference_ellipsoid']
07:20:41 WARNING: Cannot get cube for: http://129.252.139.124/thredds/dodsC/enp.wwef1.met.nc
Cube does not contain ['sea_surface_height', 'sea_surface_elevation', 'sea_surface_height_above_geoid', 'sea_surface_height_above_sea_level', 'water_surface_height_above_reference_datum', 'sea_surface_height_above_reference_ellipsoid']
07:20:46 WARNING: Cannot get cube for: http://129.252.139.124/thredds/dodsC/enp.lrif1.met.nc
Cube does not contain ['sea_surface_height', 'sea_surface_elevation', 'sea_surface_height_above_geoid', 'sea_surface_height_above_sea_level', 'water_surface_height_above_reference_datum', 'sea_surface_height_above_reference_ellipsoid']
07:20:52 WARNING: Cannot get cube for: http://129.252.139.124/thredds/dodsC/enp.bwsf1.met.nc
Cube does not contain ['sea_surface_height', 'sea_surface_elevation', 'sea_surface_height_above_geoid', 'sea_surface_height_above_sea_level', 'water_surface_height_above_reference_datum', 'sea_surface_height_above_reference_ellipsoid']
07:20:58 WARNING: Cannot get cube for: http://129.252.139.124/thredds/dodsC/enp.pkyf1.met.nc
Cube does not contain ['sea_surface_height', 'sea_surface_elevation', 'sea_surface_height_above_geoid', 'sea_surface_height_above_sea_level', 'water_surface_height_above_reference_datum', 'sea_surface_height_above_reference_ellipsoid']
07:21:05 WARNING: Cannot get cube for: http://129.252.139.124/thredds/dodsC/enp.lmdf1.met.nc
Cube does not contain ['sea_surface_height', 'sea_surface_elevation', 'sea_surface_height_above_geoid', 'sea_surface_height_above_sea_level', 'water_surface_height_above_reference_datum', 'sea_surface_height_above_reference_ellipsoid']
07:21:11 WARNING: Cannot get cube for: http://129.252.139.124/thredds/dodsC/enp.cnbf1.met.nc
Cube does not contain ['sea_surface_height', 'sea_surface_elevation', 'sea_surface_height_above_geoid', 'sea_surface_height_above_sea_level', 'water_surface_height_above_reference_datum', 'sea_surface_height_above_reference_ellipsoid']
07:21:17 WARNING: Cannot get cube for: http://129.252.139.124/thredds/dodsC/enp.hcef1.met.nc
Cube does not contain ['sea_surface_height', 'sea_surface_elevation', 'sea_surface_height_above_geoid', 'sea_surface_height_above_sea_level', 'water_surface_height_above_reference_datum', 'sea_surface_height_above_reference_ellipsoid']
07:21:23 WARNING: Cannot get cube for: http://129.252.139.124/thredds/dodsC/enp.jkyf1.met.nc
Cube does not contain ['sea_surface_height', 'sea_surface_elevation', 'sea_surface_height_above_geoid', 'sea_surface_height_above_sea_level', 'water_surface_height_above_reference_datum', 'sea_surface_height_above_reference_ellipsoid']
07:21:29 WARNING: Cannot get cube for: http://129.252.139.124/thredds/dodsC/enp.wrbf1.met.nc
Cube does not contain ['sea_surface_height', 'sea_surface_elevation', 'sea_surface_height_above_geoid', 'sea_surface_height_above_sea_level', 'water_surface_height_above_reference_datum', 'sea_surface_height_above_reference_ellipsoid']
07:21:36 WARNING: Cannot get cube for: http://129.252.139.124/thredds/dodsC/enp.gbif1.met.nc
Cube does not contain ['sea_surface_height', 'sea_surface_elevation', 'sea_surface_height_above_geoid', 'sea_surface_height_above_sea_level', 'water_surface_height_above_reference_datum', 'sea_surface_height_above_reference_ellipsoid']
07:21:46 WARNING: Cannot get cube for: http://129.252.139.124/thredds/dodsC/enp.ppta1.met.nc
Cube does not contain ['sea_surface_height', 'sea_surface_elevation', 'sea_surface_height_above_geoid', 'sea_surface_height_above_sea_level', 'water_surface_height_above_reference_datum', 'sea_surface_height_above_reference_ellipsoid']
07:21:52 WARNING: Cannot get cube for: http://129.252.139.124/thredds/dodsC/enp.bdvf1.met.nc
Cube does not contain ['sea_surface_height', 'sea_surface_elevation', 'sea_surface_height_above_geoid', 'sea_surface_height_above_sea_level', 'water_surface_height_above_reference_datum', 'sea_surface_height_above_reference_ellipsoid']
07:21:57 WARNING: Cannot get cube for: http://129.252.139.124/thredds/dodsC/enp.lrkf1.met.nc
Cube does not contain ['sea_surface_height', 'sea_surface_elevation', 'sea_surface_height_above_geoid', 'sea_surface_height_above_sea_level', 'water_surface_height_above_reference_datum', 'sea_surface_height_above_reference_ellipsoid']
07:22:03 WARNING: Cannot get cube for: http://129.252.139.124/thredds/dodsC/enp.bnkf1.met.nc
Cube does not contain ['sea_surface_height', 'sea_surface_elevation', 'sea_surface_height_above_geoid', 'sea_surface_height_above_sea_level', 'water_surface_height_above_reference_datum', 'sea_surface_height_above_reference_ellipsoid']
07:22:09 WARNING: Cannot get cube for: http://129.252.139.124/thredds/dodsC/enp.gbtf1.met.nc
Cube does not contain ['sea_surface_height', 'sea_surface_elevation', 'sea_surface_height_above_geoid', 'sea_surface_height_above_sea_level', 'water_surface_height_above_reference_datum', 'sea_surface_height_above_reference_ellipsoid']
07:22:16 WARNING: Cannot get cube for: http://129.252.139.124/thredds/dodsC/enp.tcvf1.met.nc
Cube does not contain ['sea_surface_height', 'sea_surface_elevation', 'sea_surface_height_above_geoid', 'sea_surface_height_above_sea_level', 'water_surface_height_above_reference_datum', 'sea_surface_height_above_reference_ellipsoid']
07:22:22 WARNING: Cannot get cube for: http://129.252.139.124/thredds/dodsC/enp.canf1.met.nc
Cube does not contain ['sea_surface_height', 'sea_surface_elevation', 'sea_surface_height_above_geoid', 'sea_surface_height_above_sea_level', 'water_surface_height_above_reference_datum', 'sea_surface_height_above_reference_ellipsoid']
07:22:28 WARNING: Cannot get cube for: http://129.252.139.124/thredds/dodsC/enp.lbsf1.met.nc
Cube does not contain ['sea_surface_height', 'sea_surface_elevation', 'sea_surface_height_above_geoid', 'sea_surface_height_above_sea_level', 'water_surface_height_above_reference_datum', 'sea_surface_height_above_reference_ellipsoid']
07:22:34 WARNING: Cannot get cube for: http://129.252.139.124/thredds/dodsC/enp.mukf1.met.nc
Cube does not contain ['sea_surface_height', 'sea_surface_elevation', 'sea_surface_height_above_geoid', 'sea_surface_height_above_sea_level', 'water_surface_height_above_reference_datum', 'sea_surface_height_above_reference_ellipsoid']
07:22:40 WARNING: Cannot get cube for: http://129.252.139.124/thredds/dodsC/enp.dkkf1.met.nc
Cube does not contain ['sea_surface_height', 'sea_surface_elevation', 'sea_surface_height_above_geoid', 'sea_surface_height_above_sea_level', 'water_surface_height_above_reference_datum', 'sea_surface_height_above_reference_ellipsoid']
07:22:46 WARNING: Cannot get cube for: http://129.252.139.124/thredds/dodsC/enp.cwaf1.met.nc
Cube does not contain ['sea_surface_height', 'sea_surface_elevation', 'sea_surface_height_above_geoid', 'sea_surface_height_above_sea_level', 'water_surface_height_above_reference_datum', 'sea_surface_height_above_reference_ellipsoid']
07:22:58 WARNING: /home/filipe/miniconda/envs/SECOORA/lib/python2.7/site-packages/iris/fileformats/_pyke_rules/compiled_krb/fc_rules_cf_fc.py:1196: UserWarning: Ignoring netCDF variable 'phosphate' invalid units 'uM'
  warnings.warn(msg.format(msg_name, msg_units))

07:22:59 WARNING: /home/filipe/miniconda/envs/SECOORA/lib/python2.7/site-packages/iris/fileformats/_pyke_rules/compiled_krb/fc_rules_cf_fc.py:1196: UserWarning: Ignoring netCDF variable 'photosynthetically_available_radiation' invalid units 'micromoles_per_m^2'
  warnings.warn(msg.format(msg_name, msg_units))

07:22:59 WARNING: Cannot get cube for: http://129.252.139.124/thredds/dodsC/fau.lobo.1.nc
Cube does not contain ['sea_surface_height', 'sea_surface_elevation', 'sea_surface_height_above_geoid', 'sea_surface_height_above_sea_level', 'water_surface_height_above_reference_datum', 'sea_surface_height_above_reference_ellipsoid']
07:23:22 INFO: ********************* Collector offerings **********************
07:23:22 INFO: NOAA.NOS.CO-OPS SOS: 1030 offerings
07:23:26 INFO: SOS URL request: http://opendap.co-ops.nos.noaa.gov/ioos-dif-sos/SOS?eventTime=2014-06-30T12%3A00%3A00Z&service=SOS&offering=urn%3Aioos%3Anetwork%3ANOAA.NOS.CO-OPS%3AWaterLevelActive&request=GetObservation&version=1.0.0&responseFormat=text%2Fcsv&featureOfInterest=BBOX%3A-87.4%2C24.25%2C-74.7%2C36.7&observedProperty=water_surface_height_above_reference_datum
07:24:42 INFO: ************************* Observations *************************
07:24:42 INFO: **** Downloading to file 2014-07-07/2014-07-07-OBS_DATA.nc *****
07:24:54 WARNING: [8654467] USCG Station Hatteras, NC:
'Wrong Datum for this station: The correct Datum values are: MHHW, MHW, MTL, MSL, MLW, MLLW, STND'
07:24:56 WARNING: [8656483] Beaufort, NC:
'Wrong Datum for this station: The correct Datum values are: MHHW, MHW, MTL, MSL, MLW, MLLW, STND'
07:24:57 WARNING: [8658120] Wilmington, NC:
'Wrong Datum for this station: The correct Datum values are: MHHW, MHW, MTL, MSL, MLW, MLLW, STND'
07:26:38 WARNING: [8726520] St Petersburg, FL:
'Wrong Datum for this station: The correct Datum values are: MHHW, MHW, MTL, MSL, MLW, MLLW, STND'
07:26:40 WARNING: [8726607] Old Port Tampa, FL:
'Wrong Datum for this station: The correct Datum values are: MHHW, MHW, MTL, MSL, MLW, MLLW, STND'
07:26:53 WARNING: [8729210] Panama City Beach, FL:
'Wrong Datum for this station: The correct Datum values are: MHHW, MHW, MTL, MSL, MLW, MLLW, STND'
07:26:56 INFO: ********************* SECOORA Observations *********************
07:26:56 INFO:  Downloading to file 2014-07-07/2014-07-07-SECOORA_OBS_DATA.nc *
07:26:56 INFO: **************************** Models ****************************
07:26:56 INFO: 
[Reading url 1/11]: http://crow.marine.usf.edu:8080/thredds/dodsC/FVCOM-Nowcast-Agg.nc
07:27:07 INFO: 
[Reading url 2/11]: http://crow.marine.usf.edu:8080/thredds/dodsC/WFS_ROMS_NF_model/USF_Ocean_Circulation_Group_West_Florida_Shelf_Daily_ROMS_Nowcast_Forecast_Model_Data_best.ncd
07:27:13 INFO: 
[Reading url 3/11]: http://geoport-dev.whoi.edu/thredds/dodsC/estofs/atlantic
07:27:44 INFO: 
[Reading url 4/11]: http://geoport.whoi.edu/thredds/dodsC/coawst_4/use/fmrc/coawst_4_use_best.ncd
07:28:38 INFO: 
[Reading url 5/11]: http://omgsrv1.meas.ncsu.edu:8080/thredds/dodsC/fmrc/sabgom/SABGOM_Forecast_Model_Run_Collection_best.ncd
07:28:59 WARNING: Cannot get cube for: http://omgsrv1.meas.ncsu.edu:8080/thredds/dodsC/fmrc/sabgom/SABGOM_Forecast_Model_Run_Collection_best.ncd
istart must be different from istop! Got istart 0 and  istop 0
07:28:59 INFO: 
[Reading url 6/11]: http://oos.soest.hawaii.edu/thredds/dodsC/hioos/tide_pac
07:29:02 INFO: 
[Reading url 7/11]: http://oos.soest.hawaii.edu/thredds/dodsC/pacioos/hycom/global
07:29:05 INFO: 
[Reading url 8/11]: http://tds.marine.rutgers.edu/thredds/dodsC/roms/espresso/2013_da/his_Best/ESPRESSO_Real-Time_v2_History_Best_Available_best.ncd
07:29:14 INFO: 
[Reading url 9/11]: http://www.smast.umassd.edu:8080/thredds/dodsC/FVCOM/NECOFS/Forecasts/NECOFS_WAVE_FORECAST.nc
07:29:15 WARNING: Cannot get cube for: http://www.smast.umassd.edu:8080/thredds/dodsC/FVCOM/NECOFS/Forecasts/NECOFS_WAVE_FORECAST.nc
'Expected to find exactly 1  coordinate, but found none.'
07:29:15 INFO: 
[Reading url 10/11]: http://omgsrv1.meas.ncsu.edu:8080/thredds/dodsC/fmrc/us_east/US_East_Forecast_Model_Run_Collection_best.ncd
07:29:30 WARNING: Cannot get cube for: http://omgsrv1.meas.ncsu.edu:8080/thredds/dodsC/fmrc/us_east/US_East_Forecast_Model_Run_Collection_best.ncd
istart must be different from istop! Got istart 0 and  istop 0
07:29:30 INFO: 
[Reading url 11/11]: http://crow.marine.usf.edu:8080/thredds/dodsC/WFS_SWAN_NF_model/USF_Ocean_Circulation_Group_West_Florida_Shelf_Daily_SWAN_Nowcast_Forecast_Wave_Model_Data_best.ncd
07:29:31 WARNING: Cannot get cube for: http://crow.marine.usf.edu:8080/thredds/dodsC/WFS_SWAN_NF_model/USF_Ocean_Circulation_Group_West_Florida_Shelf_Daily_SWAN_Nowcast_Forecast_Wave_Model_Data_best.ncd
Cube does not contain ['sea_surface_height', 'sea_surface_elevation', 'sea_surface_height_above_geoid', 'sea_surface_height_above_sea_level', 'water_surface_height_above_reference_datum', 'sea_surface_height_above_reference_ellipsoid']
07:29:31 INFO: ******** Saving to file 2014-07-07/2014-07-07-ESTOFS.nc ********
07:29:37 INFO: [Water  ] Duck, NC
07:29:40 INFO: [Water  ] Oregon Inlet Marina, NC
07:29:48 INFO: [Water  ] USCG Station Hatteras, NC
07:29:51 INFO: [Water  ] Beaufort, NC
07:29:51 INFO: [No Data] Wilmington, NC
07:30:04 INFO: [Water  ] Wrightsville Beach, NC
07:30:17 INFO: [Water  ] Springmaid Pier, SC
07:30:19 INFO: [Water  ] Oyster Landing (N Inlet Estuary), SC
07:30:19 INFO: [No Data] Charleston, SC
07:30:21 INFO: [Water  ] Fernandina Beach, FL
07:30:24 INFO: [Water  ] Mayport (Bar Pilots Dock), FL
07:30:24 INFO: [No Data] Dames Point, FL
07:30:24 INFO: [No Data] Southbank Riverwalk, St Johns River, FL
07:30:24 INFO: [No Data] I-295 Bridge, St Johns River, FL
07:30:24 INFO: [No Data] Red Bay Point, St Johns River, FL
07:30:24 INFO: [No Data] Racy Point, St Johns River, FL
07:30:30 INFO: [Water  ] Trident Pier, FL
07:30:37 INFO: [Water  ] Lake Worth Pier, FL
07:30:52 INFO: [Water  ] Vaca Key, FL
07:31:00 INFO: [Water  ] Key West, FL
07:31:11 INFO: [Water  ] Naples, FL
07:31:11 INFO: [No Data] Fort Myers, FL
07:31:25 INFO: [Water  ] Port Manatee, FL
07:31:40 INFO: [Water  ] St Petersburg, FL
07:31:51 INFO: [Water  ] Old Port Tampa, FL
07:32:07 INFO: [Water  ] Cedar Key, FL
07:32:17 INFO: [Water  ] Apalachicola, FL
07:32:17 INFO: [No Data] Panama City, FL
07:32:23 INFO: [Water  ] Panama City Beach, FL
07:32:23 INFO: [No Data] Pensacola, FL
07:32:29 INFO: [Water  ] Tolomato River station
07:32:44 INFO: [Water  ] Fred Howard Park
07:32:46 INFO: [Water  ] 
07:32:54 INFO: [Water  ] Big Carlos Pass
07:33:09 INFO: [Water  ] Shell Point
07:33:17 INFO: [Water  ] St Lucie Inlet station
07:33:20 INFO: [Water  ] Naples Bay station
07:33:26 INFO: [Water  ] Vero Beach station
07:33:34 INFO: [Water  ] Ponce De Leon South station
07:33:37 INFO: [Water  ] Melbourne station
07:33:48 INFO: [Water  ] Aripeka
07:33:53 INFO: [Water  ] Bing&#39;s Landing station
07:34:00 INFO: [Water  ] Binney Dock station
07:34:10 INFO: [Water  ] Gordon River Inlet station
07:34:10 INFO: Finished processing [ESTOFS]: http://crow.marine.usf.edu:8080/thredds/dodsC/WFS_SWAN_NF_model/USF_Ocean_Circulation_Group_West_Florida_Shelf_Daily_SWAN_Nowcast_Forecast_Wave_Model_Data_best.ncd
07:34:10 INFO: ******** Saving to file 2014-07-07/2014-07-07-BTMPB.nc *********
07:34:10 INFO: [No Data] Duck, NC
07:34:10 INFO: [No Data] Oregon Inlet Marina, NC
07:34:10 INFO: [No Data] USCG Station Hatteras, NC
07:34:10 INFO: [No Data] Beaufort, NC
07:34:10 INFO: [No Data] Wilmington, NC
07:34:10 INFO: [No Data] Wrightsville Beach, NC
07:34:10 INFO: [No Data] Springmaid Pier, SC
07:34:10 INFO: [No Data] Oyster Landing (N Inlet Estuary), SC
07:34:10 INFO: [No Data] Charleston, SC
07:34:10 INFO: [No Data] Fernandina Beach, FL
07:34:10 INFO: [No Data] Mayport (Bar Pilots Dock), FL
07:34:10 INFO: [No Data] Dames Point, FL
07:34:10 INFO: [No Data] Southbank Riverwalk, St Johns River, FL
07:34:10 INFO: [No Data] I-295 Bridge, St Johns River, FL
07:34:10 INFO: [No Data] Red Bay Point, St Johns River, FL
07:34:10 INFO: [No Data] Racy Point, St Johns River, FL
07:34:10 INFO: [No Data] Trident Pier, FL
07:34:10 INFO: [No Data] Lake Worth Pier, FL
07:34:10 INFO: [No Data] Vaca Key, FL
07:34:10 INFO: [No Data] Key West, FL
07:34:10 INFO: [No Data] Naples, FL
07:34:10 INFO: [No Data] Fort Myers, FL
07:34:10 INFO: [No Data] Port Manatee, FL
07:34:10 INFO: [No Data] St Petersburg, FL
07:34:10 INFO: [No Data] Old Port Tampa, FL
07:34:10 INFO: [No Data] Cedar Key, FL
07:34:10 INFO: [No Data] Apalachicola, FL
07:34:10 INFO: [No Data] Panama City, FL
07:34:10 INFO: [No Data] Panama City Beach, FL
07:34:10 INFO: [No Data] Pensacola, FL
07:34:10 INFO: [No Data] Tolomato River station
07:34:10 INFO: [No Data] Fred Howard Park
07:34:10 INFO: [No Data] 
07:34:10 INFO: [No Data] Big Carlos Pass
07:34:10 INFO: [No Data] Shell Point
07:34:10 INFO: [No Data] St Lucie Inlet station
07:34:10 INFO: [No Data] Naples Bay station
07:34:10 INFO: [No Data] Vero Beach station
07:34:10 INFO: [No Data] Ponce De Leon South station
07:34:10 INFO: [No Data] Melbourne station
07:34:10 INFO: [No Data] Aripeka
07:34:10 INFO: [No Data] Bing&#39;s Landing station
07:34:10 INFO: [No Data] Binney Dock station
07:34:10 INFO: [No Data] Gordon River Inlet station
07:34:10 INFO: Finished processing [BTMPB]: http://crow.marine.usf.edu:8080/thredds/dodsC/WFS_SWAN_NF_model/USF_Ocean_Circulation_Group_West_Florida_Shelf_Daily_SWAN_Nowcast_Forecast_Wave_Model_Data_best.ncd
07:34:10 INFO: ******** Saving to file 2014-07-07/2014-07-07-HYCOM.nc *********
07:34:13 INFO: [Land   ] Duck, NC
07:34:16 INFO: [Water  ] Oregon Inlet Marina, NC
07:34:19 INFO: [Land   ] USCG Station Hatteras, NC
07:34:21 INFO: [Land   ] Beaufort, NC
07:34:24 INFO: [Land   ] Wilmington, NC
07:34:27 INFO: [Water  ] Wrightsville Beach, NC
07:34:27 INFO: [No Data] Springmaid Pier, SC
07:34:30 INFO: [Land   ] Oyster Landing (N Inlet Estuary), SC
07:34:33 INFO: [Land   ] Charleston, SC
07:34:35 INFO: [Land   ] Fernandina Beach, FL
07:34:38 INFO: [Land   ] Mayport (Bar Pilots Dock), FL
07:34:41 INFO: [Land   ] Dames Point, FL
07:34:44 INFO: [Land   ] Southbank Riverwalk, St Johns River, FL
07:34:46 INFO: [Land   ] I-295 Bridge, St Johns River, FL
07:34:49 INFO: [Land   ] Red Bay Point, St Johns River, FL
07:34:49 INFO: [No Data] Racy Point, St Johns River, FL
07:34:52 INFO: [Land   ] Trident Pier, FL
07:34:56 INFO: [Water  ] Lake Worth Pier, FL
07:34:59 INFO: [Land   ] Vaca Key, FL
07:35:02 INFO: [Land   ] Key West, FL
07:35:02 INFO: [No Data] Naples, FL
07:35:05 INFO: [Land   ] Fort Myers, FL
07:35:08 INFO: [Land   ] Port Manatee, FL
07:35:11 INFO: [Land   ] St Petersburg, FL
07:35:14 INFO: [Land   ] Old Port Tampa, FL
07:35:18 INFO: [Land   ] Cedar Key, FL
07:35:21 INFO: [Land   ] Apalachicola, FL
07:35:24 INFO: [Land   ] Panama City, FL
07:35:24 INFO: [No Data] Panama City Beach, FL
07:35:27 INFO: [Land   ] Pensacola, FL
07:35:32 INFO: [Land   ] Tolomato River station
07:35:35 INFO: [Land   ] Fred Howard Park
07:35:38 INFO: [Land   ] 
07:35:38 INFO: [No Data] Big Carlos Pass
07:35:41 INFO: [Land   ] Shell Point
07:35:43 INFO: [Land   ] St Lucie Inlet station
07:35:47 INFO: [Land   ] Naples Bay station
07:35:50 INFO: [Land   ] Vero Beach station
07:35:54 INFO: [Water  ] Ponce De Leon South station
07:35:56 INFO: [Land   ] Melbourne station
07:36:00 INFO: [Land   ] Aripeka
07:36:02 INFO: [Land   ] Bing&#39;s Landing station
07:36:05 INFO: [Land   ] Binney Dock station
07:36:08 INFO: [Land   ] Gordon River Inlet station
07:36:08 INFO: Finished processing [HYCOM]: http://crow.marine.usf.edu:8080/thredds/dodsC/WFS_SWAN_NF_model/USF_Ocean_Circulation_Group_West_Florida_Shelf_Daily_SWAN_Nowcast_Forecast_Wave_Model_Data_best.ncd
07:36:08 INFO: ******* Saving to file 2014-07-07/2014-07-07-USF_ROMS.nc *******
07:36:08 INFO: [No Data] Duck, NC
07:36:08 INFO: [No Data] Oregon Inlet Marina, NC
07:36:08 INFO: [No Data] USCG Station Hatteras, NC
07:36:08 INFO: [No Data] Beaufort, NC
07:36:08 INFO: [No Data] Wilmington, NC
07:36:08 INFO: [No Data] Wrightsville Beach, NC
07:36:08 INFO: [No Data] Springmaid Pier, SC
07:36:08 INFO: [No Data] Oyster Landing (N Inlet Estuary), SC
07:36:08 INFO: [No Data] Charleston, SC
07:36:08 INFO: [No Data] Fernandina Beach, FL
07:36:08 INFO: [No Data] Mayport (Bar Pilots Dock), FL
07:36:08 INFO: [No Data] Dames Point, FL
07:36:08 INFO: [No Data] Southbank Riverwalk, St Johns River, FL
07:36:08 INFO: [No Data] I-295 Bridge, St Johns River, FL
07:36:08 INFO: [No Data] Red Bay Point, St Johns River, FL
07:36:08 INFO: [No Data] Racy Point, St Johns River, FL
07:36:08 INFO: [No Data] Trident Pier, FL
07:36:08 INFO: [No Data] Lake Worth Pier, FL
07:36:08 INFO: [No Data] Vaca Key, FL
07:36:08 INFO: [No Data] Key West, FL
07:36:09 INFO: [Water  ] Naples, FL
07:36:11 INFO: [Water  ] Fort Myers, FL
07:36:14 INFO: [Water  ] Port Manatee, FL
07:36:14 INFO: [No Data] St Petersburg, FL
07:36:15 INFO: [Water  ] Old Port Tampa, FL
07:36:20 INFO: [Water  ] Cedar Key, FL
07:36:23 INFO: [Water  ] Apalachicola, FL
07:36:26 INFO: [Water  ] Panama City, FL
07:36:29 INFO: [Water  ] Panama City Beach, FL
07:36:29 INFO: [No Data] Pensacola, FL
07:36:29 INFO: [No Data] Tolomato River station
07:36:32 INFO: [Water  ] Fred Howard Park
07:36:34 INFO: [Water  ] 
07:36:36 INFO: [Water  ] Big Carlos Pass
07:36:40 INFO: [Water  ] Shell Point
07:36:40 INFO: [No Data] St Lucie Inlet station
07:36:41 INFO: [Water  ] Naples Bay station
07:36:41 INFO: [No Data] Vero Beach station
07:36:41 INFO: [No Data] Ponce De Leon South station
07:36:41 INFO: [No Data] Melbourne station
07:36:44 INFO: [Water  ] Aripeka
07:36:44 INFO: [No Data] Bing&#39;s Landing station
07:36:44 INFO: [No Data] Binney Dock station
07:36:46 INFO: [Water  ] Gordon River Inlet station
07:37:11 INFO: Finished processing [USF_ROMS]: http://crow.marine.usf.edu:8080/thredds/dodsC/WFS_SWAN_NF_model/USF_Ocean_Circulation_Group_West_Florida_Shelf_Daily_SWAN_Nowcast_Forecast_Wave_Model_Data_best.ncd
07:37:11 INFO: ****** Saving to file 2014-07-07/2014-07-07-USF_FVCOM.nc *******
07:37:11 INFO: [No Data] Duck, NC
07:37:11 INFO: [No Data] Oregon Inlet Marina, NC
07:37:11 INFO: [No Data] USCG Station Hatteras, NC
07:37:11 INFO: [No Data] Beaufort, NC
07:37:11 INFO: [No Data] Wilmington, NC
07:37:11 INFO: [No Data] Wrightsville Beach, NC
07:37:11 INFO: [No Data] Springmaid Pier, SC
07:37:11 INFO: [No Data] Oyster Landing (N Inlet Estuary), SC
07:37:11 INFO: [No Data] Charleston, SC
07:37:11 INFO: [No Data] Fernandina Beach, FL
07:37:11 INFO: [No Data] Mayport (Bar Pilots Dock), FL
07:37:11 INFO: [No Data] Dames Point, FL
07:37:11 INFO: [No Data] Southbank Riverwalk, St Johns River, FL
07:37:11 INFO: [No Data] I-295 Bridge, St Johns River, FL
07:37:11 INFO: [No Data] Red Bay Point, St Johns River, FL
07:37:11 INFO: [No Data] Racy Point, St Johns River, FL
07:37:11 INFO: [No Data] Trident Pier, FL
07:37:11 INFO: [No Data] Lake Worth Pier, FL
07:37:24 INFO: [Water  ] Vaca Key, FL
07:37:36 INFO: [Water  ] Key West, FL
07:37:49 INFO: [Water  ] Naples, FL
07:38:02 INFO: [Water  ] Fort Myers, FL
07:38:18 INFO: [Water  ] Port Manatee, FL
07:38:31 INFO: [Water  ] St Petersburg, FL
07:38:43 INFO: [Water  ] Old Port Tampa, FL
07:38:48 INFO: [Water  ] Cedar Key, FL
07:39:00 INFO: [Water  ] Apalachicola, FL
07:39:00 INFO: [No Data] Panama City, FL
07:39:12 INFO: [Water  ] Panama City Beach, FL
07:39:12 INFO: [No Data] Pensacola, FL
07:39:12 INFO: [No Data] Tolomato River station
07:39:24 INFO: [Water  ] Fred Howard Park
07:39:29 INFO: [Water  ] 
07:39:41 INFO: [Water  ] Big Carlos Pass
07:39:55 INFO: [Water  ] Shell Point
07:39:55 INFO: [No Data] St Lucie Inlet station
07:40:06 INFO: [Water  ] Naples Bay station
07:40:06 INFO: [No Data] Vero Beach station
07:40:06 INFO: [No Data] Ponce De Leon South station
07:40:06 INFO: [No Data] Melbourne station
07:40:17 INFO: [Water  ] Aripeka
07:40:18 INFO: [No Data] Bing&#39;s Landing station
07:40:18 INFO: [No Data] Binney Dock station
07:40:29 INFO: [Water  ] Gordon River Inlet station
07:40:29 INFO: Finished processing [USF_FVCOM]: http://crow.marine.usf.edu:8080/thredds/dodsC/WFS_SWAN_NF_model/USF_Ocean_Circulation_Group_West_Florida_Shelf_Daily_SWAN_Nowcast_Forecast_Wave_Model_Data_best.ncd
07:40:29 INFO: ******* Saving to file 2014-07-07/2014-07-07-COAWST_4.nc *******
07:40:55 INFO: [Land   ] Duck, NC
07:41:40 INFO: [Water  ] Oregon Inlet Marina, NC
07:42:05 INFO: [Water  ] USCG Station Hatteras, NC
07:42:55 INFO: [Land   ] Beaufort, NC
07:43:22 INFO: [Land   ] Wilmington, NC
07:43:46 INFO: [Water  ] Wrightsville Beach, NC
07:44:39 INFO: [Water  ] Springmaid Pier, SC
07:45:07 INFO: [Land   ] Oyster Landing (N Inlet Estuary), SC
07:45:29 INFO: [Land   ] Charleston, SC
07:45:53 INFO: [Land   ] Fernandina Beach, FL
07:46:15 INFO: [Land   ] Mayport (Bar Pilots Dock), FL
07:46:39 INFO: [Land   ] Dames Point, FL
07:47:03 INFO: [Land   ] Southbank Riverwalk, St Johns River, FL
07:47:27 INFO: [Land   ] I-295 Bridge, St Johns River, FL
07:47:49 INFO: [Land   ] Red Bay Point, St Johns River, FL
07:48:14 INFO: [Land   ] Racy Point, St Johns River, FL
07:48:37 INFO: [Land   ] Trident Pier, FL
07:49:20 INFO: [Water  ] Lake Worth Pier, FL
07:49:48 INFO: [Land   ] Vaca Key, FL
07:50:30 INFO: [Water  ] Key West, FL
07:50:47 INFO: [Land   ] Naples, FL
07:51:05 INFO: [Land   ] Fort Myers, FL
07:51:16 INFO: [Land   ] Port Manatee, FL
07:51:32 INFO: [Land   ] St Petersburg, FL
07:51:59 INFO: [Water  ] Old Port Tampa, FL
07:52:39 INFO: [Water  ] Cedar Key, FL
07:52:56 INFO: [Water  ] Apalachicola, FL
07:53:14 INFO: [Water  ] Panama City, FL
07:53:37 INFO: [Land   ] Panama City Beach, FL
07:53:52 INFO: [Water  ] Pensacola, FL
07:54:08 INFO: [Land   ] Tolomato River station
07:54:19 INFO: [Land   ] Fred Howard Park
07:54:35 INFO: [Land   ] 
07:54:55 INFO: [Water  ] Big Carlos Pass
07:55:10 INFO: [Land   ] Shell Point
07:55:40 INFO: [Water  ] St Lucie Inlet station
07:55:55 INFO: [Land   ] Naples Bay station
07:56:24 INFO: [Land   ] Vero Beach station
07:56:40 INFO: [Water  ] Ponce De Leon South station
07:56:57 INFO: [Land   ] Melbourne station
07:57:13 INFO: [Land   ] Aripeka
07:57:27 INFO: [Land   ] Bing&#39;s Landing station
07:58:01 INFO: [Land   ] Binney Dock station
07:58:15 INFO: [Land   ] Gordon River Inlet station
08:01:41 INFO: Finished processing [COAWST_4]: http://crow.marine.usf.edu:8080/thredds/dodsC/WFS_SWAN_NF_model/USF_Ocean_Circulation_Group_West_Florida_Shelf_Daily_SWAN_Nowcast_Forecast_Wave_Model_Data_best.ncd
08:01:41 INFO: ******* Saving to file 2014-07-07/2014-07-07-ESPRESSO.nc *******
08:01:44 INFO: [Land   ] Duck, NC
08:01:46 INFO: [Water  ] Oregon Inlet Marina, NC
08:01:49 INFO: [Land   ] USCG Station Hatteras, NC
08:01:52 INFO: [Water  ] Beaufort, NC
08:01:52 INFO: [No Data] Wilmington, NC
08:01:52 INFO: [No Data] Wrightsville Beach, NC
08:01:52 INFO: [No Data] Springmaid Pier, SC
08:01:52 INFO: [No Data] Oyster Landing (N Inlet Estuary), SC
08:01:52 INFO: [No Data] Charleston, SC
08:01:52 INFO: [No Data] Fernandina Beach, FL
08:01:52 INFO: [No Data] Mayport (Bar Pilots Dock), FL
08:01:52 INFO: [No Data] Dames Point, FL
08:01:52 INFO: [No Data] Southbank Riverwalk, St Johns River, FL
08:01:52 INFO: [No Data] I-295 Bridge, St Johns River, FL
08:01:52 INFO: [No Data] Red Bay Point, St Johns River, FL
08:01:52 INFO: [No Data] Racy Point, St Johns River, FL
08:01:52 INFO: [No Data] Trident Pier, FL
08:01:52 INFO: [No Data] Lake Worth Pier, FL
08:01:52 INFO: [No Data] Vaca Key, FL
08:01:52 INFO: [No Data] Key West, FL
08:01:52 INFO: [No Data] Naples, FL
08:01:52 INFO: [No Data] Fort Myers, FL
08:01:52 INFO: [No Data] Port Manatee, FL
08:01:52 INFO: [No Data] St Petersburg, FL
08:01:52 INFO: [No Data] Old Port Tampa, FL
08:01:52 INFO: [No Data] Cedar Key, FL
08:01:52 INFO: [No Data] Apalachicola, FL
08:01:52 INFO: [No Data] Panama City, FL
08:01:52 INFO: [No Data] Panama City Beach, FL
08:01:52 INFO: [No Data] Pensacola, FL
08:01:52 INFO: [No Data] Tolomato River station
08:01:52 INFO: [No Data] Fred Howard Park
08:01:52 INFO: [No Data] 
08:01:52 INFO: [No Data] Big Carlos Pass
08:01:52 INFO: [No Data] Shell Point
08:01:52 INFO: [No Data] St Lucie Inlet station
08:01:52 INFO: [No Data] Naples Bay station
08:01:52 INFO: [No Data] Vero Beach station
08:01:52 INFO: [No Data] Ponce De Leon South station
08:01:52 INFO: [No Data] Melbourne station
08:01:52 INFO: [No Data] Aripeka
08:01:52 INFO: [No Data] Bing&#39;s Landing station
08:01:52 INFO: [No Data] Binney Dock station
08:01:52 INFO: [No Data] Gordon River Inlet station
08:01:58 INFO: Finished processing [ESPRESSO]: http://crow.marine.usf.edu:8080/thredds/dodsC/WFS_SWAN_NF_model/USF_Ocean_Circulation_Group_West_Florida_Shelf_Daily_SWAN_Nowcast_Forecast_Wave_Model_Data_best.ncd
08:01:58 WARNING: /home/filipe/miniconda/envs/SECOORA/lib/python2.7/site-packages/pandas/util/decorators.py:81: FutureWarning: the 'cols' keyword is deprecated, use 'subset' instead
  warnings.warn(msg, FutureWarning)

08:02:02 WARNING: /home/filipe/miniconda/envs/SECOORA/lib/python2.7/site-packages/numpy/core/_methods.py:59: RuntimeWarning: Mean of empty slice.
  warnings.warn("Mean of empty slice.", RuntimeWarning)

08:02:19 INFO: 55.26 minutes
08:02:19 INFO: EOF
