10:55:40 INFO: ************Saving data inside directory 2014-07-07*************
10:55:40 INFO: *********************** Run information ************************
10:55:40 INFO: Run date: 2015-08-02 13:55:40
10:55:40 INFO: Download start: 2014-07-01 12:00:00
10:55:40 INFO: Download stop: 2014-07-07 12:00:00
10:55:40 INFO: Bounding box: -87.40, 24.25,-74.70, 36.70
10:55:40 INFO: *********************** Software version ***********************
10:55:40 INFO: Iris version: 1.8.1
10:55:40 INFO: owslib version: 0.9.0
10:55:40 INFO: pyoos version: 0.6.2
10:55:45 INFO: ********************* Catalog information **********************
10:55:45 INFO: URL: http://www.ngdc.noaa.gov/geoportal/csw
10:55:45 INFO: CSW version: 2.0.2
10:55:45 INFO: Number of datasets available: 23
10:55:45 INFO: ***************************** CSW ******************************
10:55:45 INFO: USF FVCOM - Nowcast Aggregation
10:55:45 INFO: ROMS/TOMS 3.0 - New Floria Shelf Application
10:55:45 INFO: ROMS/TOMS 3.0 - South-Atlantic Bight and Gulf of Mexico
10:55:45 INFO: COAWST Forecast System : USGS : US East Coast and Gulf of Mexico (Experimental)
10:55:45 INFO: ROMS ESPRESSO Real-Time Operational IS4DVAR Forecast System Version 2 (NEW) 2013-present FMRC History (Best)
10:55:45 INFO: Barotropic Tide Model for the Pacific Basin
10:55:45 INFO: HYbrid Coordinate Ocean Model (HYCOM): Global
10:55:45 INFO: ESTOFS Storm Surge Model - Atlantic - v1.0.0 - NOAA - NCEP - ADCIRC
10:55:45 INFO: usf.apk.ngwlms
10:55:45 INFO: usf.bcp.ngwlms
10:55:45 INFO: usf.fhp.ngwlms
10:55:45 INFO: usf.shp.ngwlms
10:55:45 INFO: usf.tas.ngwlms
10:55:45 INFO: fldep.bingslanding.
10:55:45 INFO: fldep.binneydock.
10:55:45 INFO: fldep.gordonriverinlet.
10:55:45 INFO: fldep.melbourne.
10:55:45 INFO: fldep.naplesbay.
10:55:45 INFO: fldep.poncedeleonsouth.
10:55:45 INFO: fldep.redbaypoint.
10:55:45 INFO: fldep.stlucieinlet.
10:55:45 INFO: fldep.tolomatoriver.
10:55:45 INFO: fldep.verobeach.
10:55:45 INFO: ***************************** DAP ******************************
10:55:45 INFO: http://crow.marine.usf.edu:8080/thredds/dodsC/FVCOM-Nowcast-Agg.nc.html
10:55:45 INFO: http://crow.marine.usf.edu:8080/thredds/dodsC/WFS_ROMS_NF_model/USF_Ocean_Circulation_Group_West_Florida_Shelf_Daily_ROMS_Nowcast_Forecast_Model_Data_best.ncd.html
10:55:45 INFO: http://geoport-dev.whoi.edu/thredds/dodsC/estofs/atlantic.html
10:55:45 INFO: http://geoport.whoi.edu/thredds/dodsC/coawst_4/use/fmrc/coawst_4_use_best.ncd.html
10:55:45 INFO: http://omgsrv1.meas.ncsu.edu:8080/thredds/dodsC/fmrc/sabgom/SABGOM_Forecast_Model_Run_Collection_best.ncd.html
10:55:45 INFO: http://oos.soest.hawaii.edu/thredds/dodsC/hioos/tide_pac.html
10:55:45 INFO: http://oos.soest.hawaii.edu/thredds/dodsC/pacioos/hycom/global.html
10:55:45 INFO: http://tds.marine.rutgers.edu/thredds/dodsC/roms/espresso/2013_da/his_Best/ESPRESSO_Real-Time_v2_History_Best_Available_best.ncd.html
10:55:45 INFO: http://tds.secoora.org/thredds/dodsC/fldep.bingslanding..nc.html
10:55:45 INFO: http://tds.secoora.org/thredds/dodsC/fldep.binneydock..nc.html
10:55:45 INFO: http://tds.secoora.org/thredds/dodsC/fldep.gordonriverinlet..nc.html
10:55:45 INFO: http://tds.secoora.org/thredds/dodsC/fldep.melbourne..nc.html
10:55:45 INFO: http://tds.secoora.org/thredds/dodsC/fldep.naplesbay..nc.html
10:55:45 INFO: http://tds.secoora.org/thredds/dodsC/fldep.poncedeleonsouth..nc.html
10:55:45 INFO: http://tds.secoora.org/thredds/dodsC/fldep.redbaypoint..nc.html
10:55:45 INFO: http://tds.secoora.org/thredds/dodsC/fldep.stlucieinlet..nc.html
10:55:45 INFO: http://tds.secoora.org/thredds/dodsC/fldep.tolomatoriver..nc.html
10:55:45 INFO: http://tds.secoora.org/thredds/dodsC/fldep.verobeach..nc.html
10:55:45 INFO: http://tds.secoora.org/thredds/dodsC/usf.apk.ngwlms.nc.html
10:55:45 INFO: http://tds.secoora.org/thredds/dodsC/usf.bcp.ngwlms.nc.html
10:55:45 INFO: http://tds.secoora.org/thredds/dodsC/usf.fhp.ngwlms.nc.html
10:55:45 INFO: http://tds.secoora.org/thredds/dodsC/usf.shp.ngwlms.nc.html
10:55:45 INFO: http://tds.secoora.org/thredds/dodsC/usf.tas.ngwlms.nc.html
10:55:45 INFO: ***************************** SOS ******************************
10:55:45 INFO: http://tds.secoora.org/thredds/sos/fldep.bingslanding..nc?service=SOS&version=1.0.0&request=GetCapabilities
10:55:45 INFO: http://tds.secoora.org/thredds/sos/fldep.binneydock..nc?service=SOS&version=1.0.0&request=GetCapabilities
10:55:45 INFO: http://tds.secoora.org/thredds/sos/fldep.gordonriverinlet..nc?service=SOS&version=1.0.0&request=GetCapabilities
10:55:45 INFO: http://tds.secoora.org/thredds/sos/fldep.melbourne..nc?service=SOS&version=1.0.0&request=GetCapabilities
10:55:45 INFO: http://tds.secoora.org/thredds/sos/fldep.naplesbay..nc?service=SOS&version=1.0.0&request=GetCapabilities
10:55:45 INFO: http://tds.secoora.org/thredds/sos/fldep.poncedeleonsouth..nc?service=SOS&version=1.0.0&request=GetCapabilities
10:55:45 INFO: http://tds.secoora.org/thredds/sos/fldep.redbaypoint..nc?service=SOS&version=1.0.0&request=GetCapabilities
10:55:45 INFO: http://tds.secoora.org/thredds/sos/fldep.stlucieinlet..nc?service=SOS&version=1.0.0&request=GetCapabilities
10:55:45 INFO: http://tds.secoora.org/thredds/sos/fldep.tolomatoriver..nc?service=SOS&version=1.0.0&request=GetCapabilities
10:55:45 INFO: http://tds.secoora.org/thredds/sos/fldep.verobeach..nc?service=SOS&version=1.0.0&request=GetCapabilities
10:55:45 INFO: http://tds.secoora.org/thredds/sos/usf.apk.ngwlms.nc?service=SOS&version=1.0.0&request=GetCapabilities
10:55:45 INFO: http://tds.secoora.org/thredds/sos/usf.bcp.ngwlms.nc?service=SOS&version=1.0.0&request=GetCapabilities
10:55:45 INFO: http://tds.secoora.org/thredds/sos/usf.fhp.ngwlms.nc?service=SOS&version=1.0.0&request=GetCapabilities
10:55:45 INFO: http://tds.secoora.org/thredds/sos/usf.shp.ngwlms.nc?service=SOS&version=1.0.0&request=GetCapabilities
10:55:45 INFO: http://tds.secoora.org/thredds/sos/usf.tas.ngwlms.nc?service=SOS&version=1.0.0&request=GetCapabilities
10:55:45 WARNING: USEAST not in the NGDC csw
10:55:45 WARNING: USF_SWAN not in the NGDC csw
10:55:50 WARNING: Cannot get cube for: http://129.252.139.124/thredds/dodsC/fit.sispnj.met.nc
Cannot find ['sea_surface_height', 'sea_surface_elevation', 'sea_surface_height_above_geoid', 'sea_surface_height_above_sea_level', 'water_surface_height_above_reference_datum', 'sea_surface_height_above_reference_ellipsoid'] in http://129.252.139.124/thredds/dodsC/fit.sispnj.met.nc.
10:55:55 WARNING: Cannot get cube for: http://129.252.139.124/thredds/dodsC/usf.nfb.ngwlms.nc
Cannot find ['sea_surface_height', 'sea_surface_elevation', 'sea_surface_height_above_geoid', 'sea_surface_height_above_sea_level', 'water_surface_height_above_reference_datum', 'sea_surface_height_above_reference_ellipsoid'] in http://129.252.139.124/thredds/dodsC/usf.nfb.ngwlms.nc.
10:56:10 WARNING: Cannot get cube for: http://129.252.139.124/thredds/dodsC/usf.c21.weatherpak.nc
Cannot find ['sea_surface_height', 'sea_surface_elevation', 'sea_surface_height_above_geoid', 'sea_surface_height_above_sea_level', 'water_surface_height_above_reference_datum', 'sea_surface_height_above_reference_ellipsoid'] in http://129.252.139.124/thredds/dodsC/usf.c21.weatherpak.nc.
10:56:28 WARNING: Cannot get cube for: http://129.252.139.124/thredds/dodsC/usf.c10.mcat.nc
Cannot find ['sea_surface_height', 'sea_surface_elevation', 'sea_surface_height_above_geoid', 'sea_surface_height_above_sea_level', 'water_surface_height_above_reference_datum', 'sea_surface_height_above_reference_ellipsoid'] in http://129.252.139.124/thredds/dodsC/usf.c10.mcat.nc.
10:56:35 WARNING: Cannot get cube for: http://129.252.139.124/thredds/dodsC/c10_salinity_water_temp.nc
Cannot find ['sea_surface_height', 'sea_surface_elevation', 'sea_surface_height_above_geoid', 'sea_surface_height_above_sea_level', 'water_surface_height_above_reference_datum', 'sea_surface_height_above_reference_ellipsoid'] in http://129.252.139.124/thredds/dodsC/c10_salinity_water_temp.nc.
10:56:42 WARNING: Cannot get cube for: http://129.252.139.124/thredds/dodsC/QC_C10_Temp_full.nc
Cannot find ['sea_surface_height', 'sea_surface_elevation', 'sea_surface_height_above_geoid', 'sea_surface_height_above_sea_level', 'water_surface_height_above_reference_datum', 'sea_surface_height_above_reference_ellipsoid'] in http://129.252.139.124/thredds/dodsC/QC_C10_Temp_full.nc.
10:56:53 WARNING: Cannot get cube for: http://129.252.139.124/thredds/dodsC/QC_C10_Sal_full.nc
Cannot find ['sea_surface_height', 'sea_surface_elevation', 'sea_surface_height_above_geoid', 'sea_surface_height_above_sea_level', 'water_surface_height_above_reference_datum', 'sea_surface_height_above_reference_ellipsoid'] in http://129.252.139.124/thredds/dodsC/QC_C10_Sal_full.nc.
10:56:56 WARNING: Cannot get cube for: http://129.252.139.124/thredds/dodsC/usf.c12.mcat.nc
Cannot find ['sea_surface_height', 'sea_surface_elevation', 'sea_surface_height_above_geoid', 'sea_surface_height_above_sea_level', 'water_surface_height_above_reference_datum', 'sea_surface_height_above_reference_ellipsoid'] in http://129.252.139.124/thredds/dodsC/usf.c12.mcat.nc.
10:56:59 WARNING: Cannot get cube for: http://129.252.139.124/thredds/dodsC/usf.c13.mcat.nc
Cannot find ['sea_surface_height', 'sea_surface_elevation', 'sea_surface_height_above_geoid', 'sea_surface_height_above_sea_level', 'water_surface_height_above_reference_datum', 'sea_surface_height_above_reference_ellipsoid'] in http://129.252.139.124/thredds/dodsC/usf.c13.mcat.nc.
10:57:03 WARNING: Cannot get cube for: http://129.252.139.124/thredds/dodsC/usf.c10.mcat_2011.nc
Cannot find ['sea_surface_height', 'sea_surface_elevation', 'sea_surface_height_above_geoid', 'sea_surface_height_above_sea_level', 'water_surface_height_above_reference_datum', 'sea_surface_height_above_reference_ellipsoid'] in http://129.252.139.124/thredds/dodsC/usf.c10.mcat_2011.nc.
10:57:06 WARNING: Cannot get cube for: http://129.252.139.124/thredds/dodsC/usf.c12.mcat_2011.nc
Cannot find ['sea_surface_height', 'sea_surface_elevation', 'sea_surface_height_above_geoid', 'sea_surface_height_above_sea_level', 'water_surface_height_above_reference_datum', 'sea_surface_height_above_reference_ellipsoid'] in http://129.252.139.124/thredds/dodsC/usf.c12.mcat_2011.nc.
10:57:09 WARNING: Cannot get cube for: http://129.252.139.124/thredds/dodsC/usf.c13.mcat_2011.nc
Cannot find ['sea_surface_height', 'sea_surface_elevation', 'sea_surface_height_above_geoid', 'sea_surface_height_above_sea_level', 'water_surface_height_above_reference_datum', 'sea_surface_height_above_reference_ellipsoid'] in http://129.252.139.124/thredds/dodsC/usf.c13.mcat_2011.nc.
10:57:14 WARNING: Cannot get cube for: http://129.252.139.124/thredds/dodsC/carocoops.sun2.buoy.nc
Cannot find ['sea_surface_height', 'sea_surface_elevation', 'sea_surface_height_above_geoid', 'sea_surface_height_above_sea_level', 'water_surface_height_above_reference_datum', 'sea_surface_height_above_reference_ellipsoid'] in http://129.252.139.124/thredds/dodsC/carocoops.sun2.buoy.nc.
10:57:18 WARNING: Cannot get cube for: http://129.252.139.124/thredds/dodsC/carocoops.frp2.buoy.nc
Cannot find ['sea_surface_height', 'sea_surface_elevation', 'sea_surface_height_above_geoid', 'sea_surface_height_above_sea_level', 'water_surface_height_above_reference_datum', 'sea_surface_height_above_reference_ellipsoid'] in http://129.252.139.124/thredds/dodsC/carocoops.frp2.buoy.nc.
10:57:23 WARNING: Cannot get cube for: http://129.252.139.124/thredds/dodsC/carocoops.cap2.buoy.nc
Cannot find ['sea_surface_height', 'sea_surface_elevation', 'sea_surface_height_above_geoid', 'sea_surface_height_above_sea_level', 'water_surface_height_above_reference_datum', 'sea_surface_height_above_reference_ellipsoid'] in http://129.252.139.124/thredds/dodsC/carocoops.cap2.buoy.nc.
10:57:29 WARNING: Cannot get cube for: http://129.252.139.124/thredds/dodsC/cormp.ilm3.buoy.nc
Cannot find ['sea_surface_height', 'sea_surface_elevation', 'sea_surface_height_above_geoid', 'sea_surface_height_above_sea_level', 'water_surface_height_above_reference_datum', 'sea_surface_height_above_reference_ellipsoid'] in http://129.252.139.124/thredds/dodsC/cormp.ilm3.buoy.nc.
10:57:37 WARNING: Cannot get cube for: http://129.252.139.124/thredds/dodsC/cormp.ilm2.buoy.nc
Cannot find ['sea_surface_height', 'sea_surface_elevation', 'sea_surface_height_above_geoid', 'sea_surface_height_above_sea_level', 'water_surface_height_above_reference_datum', 'sea_surface_height_above_reference_ellipsoid'] in http://129.252.139.124/thredds/dodsC/cormp.ilm2.buoy.nc.
10:57:40 WARNING: Cannot get cube for: http://129.252.139.124/thredds/dodsC/cormp.ilm1.buoy.nc
Cannot find ['sea_surface_height', 'sea_surface_elevation', 'sea_surface_height_above_geoid', 'sea_surface_height_above_sea_level', 'water_surface_height_above_reference_datum', 'sea_surface_height_above_reference_ellipsoid'] in http://129.252.139.124/thredds/dodsC/cormp.ilm1.buoy.nc.
10:57:44 WARNING: Cannot get cube for: http://129.252.139.124/thredds/dodsC/cormp.lej3.buoy.nc
Cannot find ['sea_surface_height', 'sea_surface_elevation', 'sea_surface_height_above_geoid', 'sea_surface_height_above_sea_level', 'water_surface_height_above_reference_datum', 'sea_surface_height_above_reference_ellipsoid'] in http://129.252.139.124/thredds/dodsC/cormp.lej3.buoy.nc.
10:57:50 WARNING: Cannot get cube for: http://129.252.139.124/thredds/dodsC/sccf.gulfofmexico.wq.nc
Cannot find ['sea_surface_height', 'sea_surface_elevation', 'sea_surface_height_above_geoid', 'sea_surface_height_above_sea_level', 'water_surface_height_above_reference_datum', 'sea_surface_height_above_reference_ellipsoid'] in http://129.252.139.124/thredds/dodsC/sccf.gulfofmexico.wq.nc.
10:57:54 WARNING: Cannot get cube for: http://129.252.139.124/thredds/dodsC/sccf.shellpoint.wq.nc
Cannot find ['sea_surface_height', 'sea_surface_elevation', 'sea_surface_height_above_geoid', 'sea_surface_height_above_sea_level', 'water_surface_height_above_reference_datum', 'sea_surface_height_above_reference_ellipsoid'] in http://129.252.139.124/thredds/dodsC/sccf.shellpoint.wq.nc.
10:58:00 WARNING: Cannot get cube for: http://129.252.139.124/thredds/dodsC/sccf.redfishpass.wq.nc
Cannot find ['sea_surface_height', 'sea_surface_elevation', 'sea_surface_height_above_geoid', 'sea_surface_height_above_sea_level', 'water_surface_height_above_reference_datum', 'sea_surface_height_above_reference_ellipsoid'] in http://129.252.139.124/thredds/dodsC/sccf.redfishpass.wq.nc.
10:58:04 WARNING: Cannot get cube for: http://129.252.139.124/thredds/dodsC/sccf.tarponbay.wq.nc
Cannot find ['sea_surface_height', 'sea_surface_elevation', 'sea_surface_height_above_geoid', 'sea_surface_height_above_sea_level', 'water_surface_height_above_reference_datum', 'sea_surface_height_above_reference_ellipsoid'] in http://129.252.139.124/thredds/dodsC/sccf.tarponbay.wq.nc.
10:58:10 WARNING: Cannot get cube for: http://129.252.139.124/thredds/dodsC/sccf.fortmyers.wq.nc
Cannot find ['sea_surface_height', 'sea_surface_elevation', 'sea_surface_height_above_geoid', 'sea_surface_height_above_sea_level', 'water_surface_height_above_reference_datum', 'sea_surface_height_above_reference_ellipsoid'] in http://129.252.139.124/thredds/dodsC/sccf.fortmyers.wq.nc.
10:58:34 WARNING: Cannot get cube for: http://129.252.139.124/thredds/dodsC/fldep.redbaypoint..nc
istart must be different from istop! Got istart 43 and  istop 43
10:59:45 WARNING: Cannot get cube for: http://129.252.139.124/thredds/dodsC/lbhmc.2ndave.pier.nc
Cannot find ['sea_surface_height', 'sea_surface_elevation', 'sea_surface_height_above_geoid', 'sea_surface_height_above_sea_level', 'water_surface_height_above_reference_datum', 'sea_surface_height_above_reference_ellipsoid'] in http://129.252.139.124/thredds/dodsC/lbhmc.2ndave.pier.nc.
10:59:51 WARNING: Cannot get cube for: http://129.252.139.124/thredds/dodsC/lbhmc.cherrygrove.pier.nc
Cannot find ['sea_surface_height', 'sea_surface_elevation', 'sea_surface_height_above_geoid', 'sea_surface_height_above_sea_level', 'water_surface_height_above_reference_datum', 'sea_surface_height_above_reference_ellipsoid'] in http://129.252.139.124/thredds/dodsC/lbhmc.cherrygrove.pier.nc.
10:59:58 WARNING: Cannot get cube for: http://129.252.139.124/thredds/dodsC/lbhmc.apachepier.pier.nc
Cannot find ['sea_surface_height', 'sea_surface_elevation', 'sea_surface_height_above_geoid', 'sea_surface_height_above_sea_level', 'water_surface_height_above_reference_datum', 'sea_surface_height_above_reference_ellipsoid'] in http://129.252.139.124/thredds/dodsC/lbhmc.apachepier.pier.nc.
11:00:02 WARNING: Cannot get cube for: http://129.252.139.124/thredds/dodsC/enp.wiwf1.met.nc
Cannot find ['sea_surface_height', 'sea_surface_elevation', 'sea_surface_height_above_geoid', 'sea_surface_height_above_sea_level', 'water_surface_height_above_reference_datum', 'sea_surface_height_above_reference_ellipsoid'] in http://129.252.139.124/thredds/dodsC/enp.wiwf1.met.nc.
11:00:07 WARNING: Cannot get cube for: http://129.252.139.124/thredds/dodsC/enp.lbrf1.met.nc
Cannot find ['sea_surface_height', 'sea_surface_elevation', 'sea_surface_height_above_geoid', 'sea_surface_height_above_sea_level', 'water_surface_height_above_reference_datum', 'sea_surface_height_above_reference_ellipsoid'] in http://129.252.139.124/thredds/dodsC/enp.lbrf1.met.nc.
11:00:12 WARNING: Cannot get cube for: http://129.252.139.124/thredds/dodsC/enp.bobf1.met.nc
Cannot find ['sea_surface_height', 'sea_surface_elevation', 'sea_surface_height_above_geoid', 'sea_surface_height_above_sea_level', 'water_surface_height_above_reference_datum', 'sea_surface_height_above_reference_ellipsoid'] in http://129.252.139.124/thredds/dodsC/enp.bobf1.met.nc.
11:00:17 WARNING: Cannot get cube for: http://129.252.139.124/thredds/dodsC/enp.trrf1.met.nc
Cannot find ['sea_surface_height', 'sea_surface_elevation', 'sea_surface_height_above_geoid', 'sea_surface_height_above_sea_level', 'water_surface_height_above_reference_datum', 'sea_surface_height_above_reference_ellipsoid'] in http://129.252.139.124/thredds/dodsC/enp.trrf1.met.nc.
11:00:22 WARNING: Cannot get cube for: http://129.252.139.124/thredds/dodsC/enp.wwef1.met.nc
Cannot find ['sea_surface_height', 'sea_surface_elevation', 'sea_surface_height_above_geoid', 'sea_surface_height_above_sea_level', 'water_surface_height_above_reference_datum', 'sea_surface_height_above_reference_ellipsoid'] in http://129.252.139.124/thredds/dodsC/enp.wwef1.met.nc.
11:00:26 WARNING: Cannot get cube for: http://129.252.139.124/thredds/dodsC/enp.lrif1.met.nc
Cannot find ['sea_surface_height', 'sea_surface_elevation', 'sea_surface_height_above_geoid', 'sea_surface_height_above_sea_level', 'water_surface_height_above_reference_datum', 'sea_surface_height_above_reference_ellipsoid'] in http://129.252.139.124/thredds/dodsC/enp.lrif1.met.nc.
11:00:31 WARNING: Cannot get cube for: http://129.252.139.124/thredds/dodsC/enp.bwsf1.met.nc
Cannot find ['sea_surface_height', 'sea_surface_elevation', 'sea_surface_height_above_geoid', 'sea_surface_height_above_sea_level', 'water_surface_height_above_reference_datum', 'sea_surface_height_above_reference_ellipsoid'] in http://129.252.139.124/thredds/dodsC/enp.bwsf1.met.nc.
11:00:35 WARNING: Cannot get cube for: http://129.252.139.124/thredds/dodsC/enp.pkyf1.met.nc
Cannot find ['sea_surface_height', 'sea_surface_elevation', 'sea_surface_height_above_geoid', 'sea_surface_height_above_sea_level', 'water_surface_height_above_reference_datum', 'sea_surface_height_above_reference_ellipsoid'] in http://129.252.139.124/thredds/dodsC/enp.pkyf1.met.nc.
11:00:40 WARNING: Cannot get cube for: http://129.252.139.124/thredds/dodsC/enp.lmdf1.met.nc
Cannot find ['sea_surface_height', 'sea_surface_elevation', 'sea_surface_height_above_geoid', 'sea_surface_height_above_sea_level', 'water_surface_height_above_reference_datum', 'sea_surface_height_above_reference_ellipsoid'] in http://129.252.139.124/thredds/dodsC/enp.lmdf1.met.nc.
11:00:44 WARNING: Cannot get cube for: http://129.252.139.124/thredds/dodsC/enp.cnbf1.met.nc
Cannot find ['sea_surface_height', 'sea_surface_elevation', 'sea_surface_height_above_geoid', 'sea_surface_height_above_sea_level', 'water_surface_height_above_reference_datum', 'sea_surface_height_above_reference_ellipsoid'] in http://129.252.139.124/thredds/dodsC/enp.cnbf1.met.nc.
11:00:50 WARNING: Cannot get cube for: http://129.252.139.124/thredds/dodsC/enp.hcef1.met.nc
Cannot find ['sea_surface_height', 'sea_surface_elevation', 'sea_surface_height_above_geoid', 'sea_surface_height_above_sea_level', 'water_surface_height_above_reference_datum', 'sea_surface_height_above_reference_ellipsoid'] in http://129.252.139.124/thredds/dodsC/enp.hcef1.met.nc.
11:00:55 WARNING: Cannot get cube for: http://129.252.139.124/thredds/dodsC/enp.jkyf1.met.nc
Cannot find ['sea_surface_height', 'sea_surface_elevation', 'sea_surface_height_above_geoid', 'sea_surface_height_above_sea_level', 'water_surface_height_above_reference_datum', 'sea_surface_height_above_reference_ellipsoid'] in http://129.252.139.124/thredds/dodsC/enp.jkyf1.met.nc.
11:00:59 WARNING: Cannot get cube for: http://129.252.139.124/thredds/dodsC/enp.wrbf1.met.nc
Cannot find ['sea_surface_height', 'sea_surface_elevation', 'sea_surface_height_above_geoid', 'sea_surface_height_above_sea_level', 'water_surface_height_above_reference_datum', 'sea_surface_height_above_reference_ellipsoid'] in http://129.252.139.124/thredds/dodsC/enp.wrbf1.met.nc.
11:01:03 WARNING: Cannot get cube for: http://129.252.139.124/thredds/dodsC/enp.gbif1.met.nc
Cannot find ['sea_surface_height', 'sea_surface_elevation', 'sea_surface_height_above_geoid', 'sea_surface_height_above_sea_level', 'water_surface_height_above_reference_datum', 'sea_surface_height_above_reference_ellipsoid'] in http://129.252.139.124/thredds/dodsC/enp.gbif1.met.nc.
11:01:09 WARNING: Cannot get cube for: http://129.252.139.124/thredds/dodsC/enp.ppta1.met.nc
Cannot find ['sea_surface_height', 'sea_surface_elevation', 'sea_surface_height_above_geoid', 'sea_surface_height_above_sea_level', 'water_surface_height_above_reference_datum', 'sea_surface_height_above_reference_ellipsoid'] in http://129.252.139.124/thredds/dodsC/enp.ppta1.met.nc.
11:01:14 WARNING: Cannot get cube for: http://129.252.139.124/thredds/dodsC/enp.bdvf1.met.nc
Cannot find ['sea_surface_height', 'sea_surface_elevation', 'sea_surface_height_above_geoid', 'sea_surface_height_above_sea_level', 'water_surface_height_above_reference_datum', 'sea_surface_height_above_reference_ellipsoid'] in http://129.252.139.124/thredds/dodsC/enp.bdvf1.met.nc.
11:01:19 WARNING: Cannot get cube for: http://129.252.139.124/thredds/dodsC/enp.lrkf1.met.nc
Cannot find ['sea_surface_height', 'sea_surface_elevation', 'sea_surface_height_above_geoid', 'sea_surface_height_above_sea_level', 'water_surface_height_above_reference_datum', 'sea_surface_height_above_reference_ellipsoid'] in http://129.252.139.124/thredds/dodsC/enp.lrkf1.met.nc.
11:01:23 WARNING: Cannot get cube for: http://129.252.139.124/thredds/dodsC/enp.bnkf1.met.nc
Cannot find ['sea_surface_height', 'sea_surface_elevation', 'sea_surface_height_above_geoid', 'sea_surface_height_above_sea_level', 'water_surface_height_above_reference_datum', 'sea_surface_height_above_reference_ellipsoid'] in http://129.252.139.124/thredds/dodsC/enp.bnkf1.met.nc.
11:01:28 WARNING: Cannot get cube for: http://129.252.139.124/thredds/dodsC/enp.gbtf1.met.nc
Cannot find ['sea_surface_height', 'sea_surface_elevation', 'sea_surface_height_above_geoid', 'sea_surface_height_above_sea_level', 'water_surface_height_above_reference_datum', 'sea_surface_height_above_reference_ellipsoid'] in http://129.252.139.124/thredds/dodsC/enp.gbtf1.met.nc.
11:01:33 WARNING: Cannot get cube for: http://129.252.139.124/thredds/dodsC/enp.tcvf1.met.nc
Cannot find ['sea_surface_height', 'sea_surface_elevation', 'sea_surface_height_above_geoid', 'sea_surface_height_above_sea_level', 'water_surface_height_above_reference_datum', 'sea_surface_height_above_reference_ellipsoid'] in http://129.252.139.124/thredds/dodsC/enp.tcvf1.met.nc.
11:01:38 WARNING: Cannot get cube for: http://129.252.139.124/thredds/dodsC/enp.canf1.met.nc
Cannot find ['sea_surface_height', 'sea_surface_elevation', 'sea_surface_height_above_geoid', 'sea_surface_height_above_sea_level', 'water_surface_height_above_reference_datum', 'sea_surface_height_above_reference_ellipsoid'] in http://129.252.139.124/thredds/dodsC/enp.canf1.met.nc.
11:01:47 WARNING: Cannot get cube for: http://129.252.139.124/thredds/dodsC/enp.lbsf1.met.nc
Cannot find ['sea_surface_height', 'sea_surface_elevation', 'sea_surface_height_above_geoid', 'sea_surface_height_above_sea_level', 'water_surface_height_above_reference_datum', 'sea_surface_height_above_reference_ellipsoid'] in http://129.252.139.124/thredds/dodsC/enp.lbsf1.met.nc.
11:01:53 WARNING: Cannot get cube for: http://129.252.139.124/thredds/dodsC/enp.mukf1.met.nc
Cannot find ['sea_surface_height', 'sea_surface_elevation', 'sea_surface_height_above_geoid', 'sea_surface_height_above_sea_level', 'water_surface_height_above_reference_datum', 'sea_surface_height_above_reference_ellipsoid'] in http://129.252.139.124/thredds/dodsC/enp.mukf1.met.nc.
11:02:01 WARNING: Cannot get cube for: http://129.252.139.124/thredds/dodsC/enp.dkkf1.met.nc
Cannot find ['sea_surface_height', 'sea_surface_elevation', 'sea_surface_height_above_geoid', 'sea_surface_height_above_sea_level', 'water_surface_height_above_reference_datum', 'sea_surface_height_above_reference_ellipsoid'] in http://129.252.139.124/thredds/dodsC/enp.dkkf1.met.nc.
11:02:10 WARNING: Cannot get cube for: http://129.252.139.124/thredds/dodsC/enp.cwaf1.met.nc
Cannot find ['sea_surface_height', 'sea_surface_elevation', 'sea_surface_height_above_geoid', 'sea_surface_height_above_sea_level', 'water_surface_height_above_reference_datum', 'sea_surface_height_above_reference_ellipsoid'] in http://129.252.139.124/thredds/dodsC/enp.cwaf1.met.nc.
11:02:24 WARNING: Cannot get cube for: http://129.252.139.124/thredds/dodsC/fau.lobo.1.nc
Cannot find ['sea_surface_height', 'sea_surface_elevation', 'sea_surface_height_above_geoid', 'sea_surface_height_above_sea_level', 'water_surface_height_above_reference_datum', 'sea_surface_height_above_reference_ellipsoid'] in http://129.252.139.124/thredds/dodsC/fau.lobo.1.nc.
11:02:28 INFO: ********************* Collector offerings **********************
11:02:28 INFO: NOAA.NOS.CO-OPS SOS: 1048 offerings
11:02:32 INFO: SOS URL request: http://opendap.co-ops.nos.noaa.gov/ioos-dif-sos/SOS?eventTime=2014-07-01T12%3A00%3A00Z&service=SOS&offering=urn%3Aioos%3Anetwork%3ANOAA.NOS.CO-OPS%3AWaterLevelActive&request=GetObservation&version=1.0.0&responseFormat=text%2Fcsv&featureOfInterest=BBOX%3A-87.4%2C24.25%2C-74.7%2C36.7&observedProperty=water_surface_height_above_reference_datum
11:03:57 INFO: ************************* Observations *************************
11:03:57 INFO: **** Downloading to file 2014-07-07/2014-07-07-OBS_DATA.nc *****
11:04:05 WARNING: [8654467] USCG Station Hatteras, NC:
'Wrong Datum for this station: The correct Datum values are: MHHW, MHW, MTL, MSL, MLW, MLLW, STND'
11:04:08 WARNING: [8656483] Beaufort, NC:
'Wrong Datum for this station: The correct Datum values are: MHHW, MHW, MTL, MSL, MLW, MLLW, STND'
11:04:11 WARNING: [8658120] Wilmington, NC:
'Wrong Datum for this station: The correct Datum values are: MHHW, MHW, MTL, MSL, MLW, MLLW, STND'
11:05:24 WARNING: [8726520] St Petersburg, FL:
'Wrong Datum for this station: The correct Datum values are: MHHW, MHW, MTL, MSL, MLW, MLLW, STND'
11:05:27 WARNING: [8726607] Old Port Tampa, FL:
'Wrong Datum for this station: The correct Datum values are: MHHW, MHW, MTL, MSL, MLW, MLLW, STND'
11:05:44 WARNING: [8729210] Panama City Beach, FL:
'Wrong Datum for this station: The correct Datum values are: MHHW, MHW, MTL, MSL, MLW, MLLW, STND'
11:05:48 WARNING: /home/filipe/miniconda/envs/SECOORA/lib/python2.7/site-packages/iris/fileformats/netcdf.py:1783: UserWarning: NetCDF default saving behaviour currently assigns the outermost dimensions to unlimited. This behaviour is to be deprecated, in favour of no automatic assignment. To switch to the new behaviour, set iris.FUTURE.netcdf_no_unlimited to True.
  warnings.warn(msg)

11:05:48 INFO: ********************* SECOORA Observations *********************
11:05:48 INFO:  Downloading to file 2014-07-07/2014-07-07-SECOORA_OBS_DATA.nc *
11:05:48 INFO: **************************** Models ****************************
11:05:48 INFO: 
[Reading url 1/25]: http://crow.marine.usf.edu:8080/thredds/dodsC/FVCOM-Nowcast-Agg.nc
11:06:00 INFO: 
[Reading url 2/25]: http://crow.marine.usf.edu:8080/thredds/dodsC/WFS_ROMS_NF_model/USF_Ocean_Circulation_Group_West_Florida_Shelf_Daily_ROMS_Nowcast_Forecast_Model_Data_best.ncd
11:06:07 INFO: 
[Reading url 3/25]: http://geoport-dev.whoi.edu/thredds/dodsC/estofs/atlantic
11:06:08 WARNING: Cannot get cube for: http://geoport-dev.whoi.edu/thredds/dodsC/estofs/atlantic
NetCDF: Malformed or inaccessible DAP DDS
11:06:08 INFO: 
[Reading url 4/25]: http://geoport.whoi.edu/thredds/dodsC/coawst_4/use/fmrc/coawst_4_use_best.ncd
11:06:49 INFO: 
[Reading url 5/25]: http://omgarch1.meas.ncsu.edu:8080/thredds/dodsC/fmrc/sabgom/SABGOM_Forecast_Model_Run_Collection_best.ncd
11:07:13 INFO: 
[Reading url 6/25]: http://oos.soest.hawaii.edu/thredds/dodsC/hioos/tide_pac
11:07:19 INFO: 
[Reading url 7/25]: http://oos.soest.hawaii.edu/thredds/dodsC/pacioos/hycom/global
11:07:23 INFO: 
[Reading url 8/25]: http://tds.marine.rutgers.edu/thredds/dodsC/roms/espresso/2013_da/his_Best/ESPRESSO_Real-Time_v2_History_Best_Available_best.ncd
11:07:33 INFO: 
[Reading url 9/25]: http://tds.secoora.org/thredds/dodsC/fldep.bingslanding..nc
11:07:44 WARNING: [Not model data]: http://tds.secoora.org/thredds/dodsC/fldep.bingslanding..nc
11:07:44 INFO: 
[Reading url 10/25]: http://tds.secoora.org/thredds/dodsC/fldep.binneydock..nc
11:07:54 WARNING: [Not model data]: http://tds.secoora.org/thredds/dodsC/fldep.binneydock..nc
11:07:54 INFO: 
[Reading url 11/25]: http://tds.secoora.org/thredds/dodsC/fldep.gordonriverinlet..nc
11:08:03 WARNING: [Not model data]: http://tds.secoora.org/thredds/dodsC/fldep.gordonriverinlet..nc
11:08:03 INFO: 
[Reading url 12/25]: http://tds.secoora.org/thredds/dodsC/fldep.melbourne..nc
11:08:12 WARNING: [Not model data]: http://tds.secoora.org/thredds/dodsC/fldep.melbourne..nc
11:08:12 INFO: 
[Reading url 13/25]: http://tds.secoora.org/thredds/dodsC/fldep.naplesbay..nc
11:08:22 WARNING: [Not model data]: http://tds.secoora.org/thredds/dodsC/fldep.naplesbay..nc
11:08:22 INFO: 
[Reading url 14/25]: http://tds.secoora.org/thredds/dodsC/fldep.poncedeleonsouth..nc
11:08:32 WARNING: [Not model data]: http://tds.secoora.org/thredds/dodsC/fldep.poncedeleonsouth..nc
11:08:32 INFO: 
[Reading url 15/25]: http://tds.secoora.org/thredds/dodsC/fldep.redbaypoint..nc
11:08:34 WARNING: [Not model data]: http://tds.secoora.org/thredds/dodsC/fldep.redbaypoint..nc
11:08:34 INFO: 
[Reading url 16/25]: http://tds.secoora.org/thredds/dodsC/fldep.stlucieinlet..nc
11:08:44 WARNING: [Not model data]: http://tds.secoora.org/thredds/dodsC/fldep.stlucieinlet..nc
11:08:44 INFO: 
[Reading url 17/25]: http://tds.secoora.org/thredds/dodsC/fldep.tolomatoriver..nc
11:08:57 WARNING: [Not model data]: http://tds.secoora.org/thredds/dodsC/fldep.tolomatoriver..nc
11:08:57 INFO: 
[Reading url 18/25]: http://tds.secoora.org/thredds/dodsC/fldep.verobeach..nc
11:09:08 WARNING: [Not model data]: http://tds.secoora.org/thredds/dodsC/fldep.verobeach..nc
11:09:08 INFO: 
[Reading url 19/25]: http://tds.secoora.org/thredds/dodsC/usf.apk.ngwlms.nc
11:09:15 WARNING: [Not model data]: http://tds.secoora.org/thredds/dodsC/usf.apk.ngwlms.nc
11:09:15 INFO: 
[Reading url 20/25]: http://tds.secoora.org/thredds/dodsC/usf.bcp.ngwlms.nc
11:09:23 WARNING: [Not model data]: http://tds.secoora.org/thredds/dodsC/usf.bcp.ngwlms.nc
11:09:23 INFO: 
[Reading url 21/25]: http://tds.secoora.org/thredds/dodsC/usf.fhp.ngwlms.nc
11:09:30 WARNING: [Not model data]: http://tds.secoora.org/thredds/dodsC/usf.fhp.ngwlms.nc
11:09:30 INFO: 
[Reading url 22/25]: http://tds.secoora.org/thredds/dodsC/usf.shp.ngwlms.nc
11:09:39 WARNING: [Not model data]: http://tds.secoora.org/thredds/dodsC/usf.shp.ngwlms.nc
11:09:39 INFO: 
[Reading url 23/25]: http://tds.secoora.org/thredds/dodsC/usf.tas.ngwlms.nc
11:09:47 WARNING: [Not model data]: http://tds.secoora.org/thredds/dodsC/usf.tas.ngwlms.nc
11:09:47 INFO: 
[Reading url 24/25]: http://omgsrv1.meas.ncsu.edu:8080/thredds/dodsC/fmrc/us_east/US_East_Forecast_Model_Run_Collection_best.ncd
11:10:03 WARNING: Cannot get cube for: http://omgsrv1.meas.ncsu.edu:8080/thredds/dodsC/fmrc/us_east/US_East_Forecast_Model_Run_Collection_best.ncd
istart must be different from istop! Got istart 0 and  istop 0
11:10:03 INFO: 
[Reading url 25/25]: http://crow.marine.usf.edu:8080/thredds/dodsC/WFS_SWAN_NF_model/USF_Ocean_Circulation_Group_West_Florida_Shelf_Daily_SWAN_Nowcast_Forecast_Wave_Model_Data_best.ncd
11:10:04 WARNING: Cannot get cube for: http://crow.marine.usf.edu:8080/thredds/dodsC/WFS_SWAN_NF_model/USF_Ocean_Circulation_Group_West_Florida_Shelf_Daily_SWAN_Nowcast_Forecast_Wave_Model_Data_best.ncd
Cannot find ['sea_surface_height', 'sea_surface_elevation', 'sea_surface_height_above_geoid', 'sea_surface_height_above_sea_level', 'water_surface_height_above_reference_datum', 'sea_surface_height_above_reference_ellipsoid'] in http://crow.marine.usf.edu:8080/thredds/dodsC/WFS_SWAN_NF_model/USF_Ocean_Circulation_Group_West_Florida_Shelf_Daily_SWAN_Nowcast_Forecast_Wave_Model_Data_best.ncd.
11:10:04 INFO: **** Saving to file 2014-07-07/2014-07-07-SABGOM_ARCHIVE.nc ****
11:10:11 INFO: [Water  ] Duck, NC
11:10:14 INFO: [Land   ] Oregon Inlet Marina, NC
11:10:19 INFO: [Water  ] USCG Station Hatteras, NC
11:10:23 INFO: [Land   ] Beaufort, NC
11:10:26 INFO: [Land   ] Wilmington, NC
11:10:29 INFO: [Water  ] Wrightsville Beach, NC
11:10:31 INFO: [Water  ] Springmaid Pier, SC
11:10:34 INFO: [Land   ] Oyster Landing (N Inlet Estuary), SC
11:10:37 INFO: [Land   ] Charleston, SC
11:10:41 INFO: [Land   ] Fernandina Beach, FL
11:10:45 INFO: [Land   ] Mayport (Bar Pilots Dock), FL
11:10:49 INFO: [Land   ] Dames Point, FL
11:10:52 INFO: [Land   ] Southbank Riverwalk, St Johns River, FL
11:10:55 INFO: [Land   ] I-295 Bridge, St Johns River, FL
11:10:59 INFO: [Land   ] Red Bay Point, St Johns River, FL
11:11:02 INFO: [Land   ] Racy Point, St Johns River, FL
11:11:09 INFO: [Land   ] Trident Pier, FL
11:11:17 INFO: [Land   ] Lake Worth Pier, FL
11:11:23 INFO: [Water  ] Virginia Key, FL
11:11:30 INFO: [Land   ] Vaca Key, FL
11:11:33 INFO: [Water  ] Key West, FL
11:11:37 INFO: [Land   ] Naples, FL
11:11:39 INFO: [Land   ] Fort Myers, FL
11:11:46 INFO: [Land   ] Port Manatee, FL
11:11:52 INFO: [Land   ] St Petersburg, FL
11:11:57 INFO: [Water  ] Old Port Tampa, FL
11:12:01 INFO: [Water  ] Cedar Key, FL
11:12:03 INFO: [Land   ] Apalachicola, FL
11:12:07 INFO: [Land   ] Panama City, FL
11:12:13 INFO: [Water  ] Panama City Beach, FL
11:12:16 INFO: [Land   ] Pensacola, FL
11:12:19 INFO: [Land   ] Tolomato River station
11:12:25 INFO: [Land   ] Fred Howard Park
11:12:28 INFO: [Land   ] usf_tas_ngwlms
11:12:31 INFO: [Land   ] Big Carlos Pass
11:12:34 INFO: [Land   ] Shell Point
11:12:40 INFO: [Water  ] St Lucie Inlet station
11:12:43 INFO: [Land   ] Naples Bay station
11:12:46 INFO: [Land   ] Vero Beach station
11:12:48 INFO: [Land   ] Ponce De Leon South station
11:12:51 INFO: [Land   ] Melbourne station
11:12:54 INFO: [Land   ] Aripeka
11:12:57 INFO: [Land   ] Bing's Landing station
11:13:00 INFO: [Land   ] Binney Dock station
11:13:02 INFO: [Land   ] Gordon River Inlet station
11:13:34 INFO: Finished processing [SABGOM_ARCHIVE]: http://crow.marine.usf.edu:8080/thredds/dodsC/WFS_SWAN_NF_model/USF_Ocean_Circulation_Group_West_Florida_Shelf_Daily_SWAN_Nowcast_Forecast_Wave_Model_Data_best.ncd
11:13:34 INFO: ******** Saving to file 2014-07-07/2014-07-07-BTMPB.nc *********
11:13:34 INFO: [No Data] Duck, NC
11:13:34 INFO: [No Data] Oregon Inlet Marina, NC
11:13:34 INFO: [No Data] USCG Station Hatteras, NC
11:13:34 INFO: [No Data] Beaufort, NC
11:13:34 INFO: [No Data] Wilmington, NC
11:13:34 INFO: [No Data] Wrightsville Beach, NC
11:13:34 INFO: [No Data] Springmaid Pier, SC
11:13:34 INFO: [No Data] Oyster Landing (N Inlet Estuary), SC
11:13:34 INFO: [No Data] Charleston, SC
11:13:34 INFO: [No Data] Fernandina Beach, FL
11:13:34 INFO: [No Data] Mayport (Bar Pilots Dock), FL
11:13:34 INFO: [No Data] Dames Point, FL
11:13:34 INFO: [No Data] Southbank Riverwalk, St Johns River, FL
11:13:34 INFO: [No Data] I-295 Bridge, St Johns River, FL
11:13:34 INFO: [No Data] Red Bay Point, St Johns River, FL
11:13:34 INFO: [No Data] Racy Point, St Johns River, FL
11:13:34 INFO: [No Data] Trident Pier, FL
11:13:34 INFO: [No Data] Lake Worth Pier, FL
11:13:34 INFO: [No Data] Virginia Key, FL
11:13:34 INFO: [No Data] Vaca Key, FL
11:13:34 INFO: [No Data] Key West, FL
11:13:34 INFO: [No Data] Naples, FL
11:13:34 INFO: [No Data] Fort Myers, FL
11:13:34 INFO: [No Data] Port Manatee, FL
11:13:34 INFO: [No Data] St Petersburg, FL
11:13:34 INFO: [No Data] Old Port Tampa, FL
11:13:34 INFO: [No Data] Cedar Key, FL
11:13:34 INFO: [No Data] Apalachicola, FL
11:13:34 INFO: [No Data] Panama City, FL
11:13:34 INFO: [No Data] Panama City Beach, FL
11:13:34 INFO: [No Data] Pensacola, FL
11:13:34 INFO: [No Data] Tolomato River station
11:13:34 INFO: [No Data] Fred Howard Park
11:13:34 INFO: [No Data] usf_tas_ngwlms
11:13:34 INFO: [No Data] Big Carlos Pass
11:13:34 INFO: [No Data] Shell Point
11:13:34 INFO: [No Data] St Lucie Inlet station
11:13:34 INFO: [No Data] Naples Bay station
11:13:34 INFO: [No Data] Vero Beach station
11:13:34 INFO: [No Data] Ponce De Leon South station
11:13:34 INFO: [No Data] Melbourne station
11:13:34 INFO: [No Data] Aripeka
11:13:34 INFO: [No Data] Bing's Landing station
11:13:34 INFO: [No Data] Binney Dock station
11:13:34 INFO: [No Data] Gordon River Inlet station
11:13:34 INFO: Finished processing [BTMPB]: http://crow.marine.usf.edu:8080/thredds/dodsC/WFS_SWAN_NF_model/USF_Ocean_Circulation_Group_West_Florida_Shelf_Daily_SWAN_Nowcast_Forecast_Wave_Model_Data_best.ncd
11:13:34 INFO: ******** Saving to file 2014-07-07/2014-07-07-HYCOM.nc *********
11:13:38 INFO: [Land   ] Duck, NC
11:13:43 INFO: [Water  ] Oregon Inlet Marina, NC
11:13:48 INFO: [Land   ] USCG Station Hatteras, NC
11:13:57 INFO: [Land   ] Beaufort, NC
11:14:01 INFO: [Land   ] Wilmington, NC
11:14:05 INFO: [Water  ] Wrightsville Beach, NC
11:14:05 INFO: [No Data] Springmaid Pier, SC
11:14:12 INFO: [Land   ] Oyster Landing (N Inlet Estuary), SC
11:14:16 INFO: [Land   ] Charleston, SC
11:14:20 INFO: [Land   ] Fernandina Beach, FL
11:14:24 INFO: [Land   ] Mayport (Bar Pilots Dock), FL
11:14:34 INFO: [Land   ] Dames Point, FL
11:14:38 INFO: [Land   ] Southbank Riverwalk, St Johns River, FL
11:14:44 INFO: [Land   ] I-295 Bridge, St Johns River, FL
11:14:48 INFO: [Land   ] Red Bay Point, St Johns River, FL
11:14:48 INFO: [No Data] Racy Point, St Johns River, FL
11:14:54 INFO: [Land   ] Trident Pier, FL
11:15:02 INFO: [Water  ] Lake Worth Pier, FL
11:15:09 INFO: [Land   ] Virginia Key, FL
11:15:16 INFO: [Land   ] Vaca Key, FL
11:15:22 INFO: [Land   ] Key West, FL
11:15:22 INFO: [No Data] Naples, FL
11:15:28 INFO: [Land   ] Fort Myers, FL
11:15:34 INFO: [Land   ] Port Manatee, FL
11:15:38 INFO: [Land   ] St Petersburg, FL
11:15:44 INFO: [Land   ] Old Port Tampa, FL
11:15:49 INFO: [Land   ] Cedar Key, FL
11:15:54 INFO: [Land   ] Apalachicola, FL
11:16:00 INFO: [Land   ] Panama City, FL
11:16:00 INFO: [No Data] Panama City Beach, FL
11:16:09 INFO: [Land   ] Pensacola, FL
11:16:13 INFO: [Land   ] Tolomato River station
11:16:18 INFO: [Land   ] Fred Howard Park
11:16:24 INFO: [Land   ] usf_tas_ngwlms
11:16:24 INFO: [No Data] Big Carlos Pass
11:16:29 INFO: [Land   ] Shell Point
11:16:34 INFO: [Land   ] St Lucie Inlet station
11:16:38 INFO: [Land   ] Naples Bay station
11:16:42 INFO: [Land   ] Vero Beach station
11:16:48 INFO: [Water  ] Ponce De Leon South station
11:16:52 INFO: [Land   ] Melbourne station
11:16:57 INFO: [Land   ] Aripeka
11:17:01 INFO: [Land   ] Bing's Landing station
11:17:05 INFO: [Land   ] Binney Dock station
11:17:14 INFO: [Land   ] Gordon River Inlet station
11:17:14 INFO: Finished processing [HYCOM]: http://crow.marine.usf.edu:8080/thredds/dodsC/WFS_SWAN_NF_model/USF_Ocean_Circulation_Group_West_Florida_Shelf_Daily_SWAN_Nowcast_Forecast_Wave_Model_Data_best.ncd
11:17:14 INFO: ******* Saving to file 2014-07-07/2014-07-07-USF_ROMS.nc *******
11:17:14 INFO: [No Data] Duck, NC
11:17:14 INFO: [No Data] Oregon Inlet Marina, NC
11:17:14 INFO: [No Data] USCG Station Hatteras, NC
11:17:14 INFO: [No Data] Beaufort, NC
11:17:14 INFO: [No Data] Wilmington, NC
11:17:14 INFO: [No Data] Wrightsville Beach, NC
11:17:14 INFO: [No Data] Springmaid Pier, SC
11:17:14 INFO: [No Data] Oyster Landing (N Inlet Estuary), SC
11:17:14 INFO: [No Data] Charleston, SC
11:17:14 INFO: [No Data] Fernandina Beach, FL
11:17:14 INFO: [No Data] Mayport (Bar Pilots Dock), FL
11:17:14 INFO: [No Data] Dames Point, FL
11:17:14 INFO: [No Data] Southbank Riverwalk, St Johns River, FL
11:17:14 INFO: [No Data] I-295 Bridge, St Johns River, FL
11:17:14 INFO: [No Data] Red Bay Point, St Johns River, FL
11:17:14 INFO: [No Data] Racy Point, St Johns River, FL
11:17:14 INFO: [No Data] Trident Pier, FL
11:17:14 INFO: [No Data] Lake Worth Pier, FL
11:17:14 INFO: [No Data] Virginia Key, FL
11:17:14 INFO: [No Data] Vaca Key, FL
11:17:14 INFO: [No Data] Key West, FL
11:17:15 INFO: [Water  ] Naples, FL
11:17:17 INFO: [Water  ] Fort Myers, FL
11:17:20 INFO: [Water  ] Port Manatee, FL
11:17:20 INFO: [No Data] St Petersburg, FL
11:17:22 INFO: [Water  ] Old Port Tampa, FL
11:17:27 INFO: [Water  ] Cedar Key, FL
11:17:30 INFO: [Water  ] Apalachicola, FL
11:17:33 INFO: [Water  ] Panama City, FL
11:17:36 INFO: [Water  ] Panama City Beach, FL
11:17:36 INFO: [No Data] Pensacola, FL
11:17:36 INFO: [No Data] Tolomato River station
11:17:38 INFO: [Water  ] Fred Howard Park
11:17:41 INFO: [Water  ] usf_tas_ngwlms
11:17:43 INFO: [Water  ] Big Carlos Pass
11:17:48 INFO: [Water  ] Shell Point
11:17:48 INFO: [No Data] St Lucie Inlet station
11:17:49 INFO: [Water  ] Naples Bay station
11:17:49 INFO: [No Data] Vero Beach station
11:17:49 INFO: [No Data] Ponce De Leon South station
11:17:49 INFO: [No Data] Melbourne station
11:17:53 INFO: [Water  ] Aripeka
11:17:53 INFO: [No Data] Bing's Landing station
11:17:53 INFO: [No Data] Binney Dock station
11:17:54 INFO: [Water  ] Gordon River Inlet station
11:18:18 INFO: Finished processing [USF_ROMS]: http://crow.marine.usf.edu:8080/thredds/dodsC/WFS_SWAN_NF_model/USF_Ocean_Circulation_Group_West_Florida_Shelf_Daily_SWAN_Nowcast_Forecast_Wave_Model_Data_best.ncd
11:18:18 INFO: ****** Saving to file 2014-07-07/2014-07-07-USF_FVCOM.nc *******
11:18:18 INFO: [No Data] Duck, NC
11:18:18 INFO: [No Data] Oregon Inlet Marina, NC
11:18:18 INFO: [No Data] USCG Station Hatteras, NC
11:18:18 INFO: [No Data] Beaufort, NC
11:18:18 INFO: [No Data] Wilmington, NC
11:18:18 INFO: [No Data] Wrightsville Beach, NC
11:18:18 INFO: [No Data] Springmaid Pier, SC
11:18:18 INFO: [No Data] Oyster Landing (N Inlet Estuary), SC
11:18:18 INFO: [No Data] Charleston, SC
11:18:18 INFO: [No Data] Fernandina Beach, FL
11:18:18 INFO: [No Data] Mayport (Bar Pilots Dock), FL
11:18:18 INFO: [No Data] Dames Point, FL
11:18:18 INFO: [No Data] Southbank Riverwalk, St Johns River, FL
11:18:18 INFO: [No Data] I-295 Bridge, St Johns River, FL
11:18:18 INFO: [No Data] Red Bay Point, St Johns River, FL
11:18:18 INFO: [No Data] Racy Point, St Johns River, FL
11:18:18 INFO: [No Data] Trident Pier, FL
11:18:18 INFO: [No Data] Lake Worth Pier, FL
11:18:18 INFO: [No Data] Virginia Key, FL
11:18:31 INFO: [Water  ] Vaca Key, FL
11:18:43 INFO: [Water  ] Key West, FL
11:18:56 INFO: [Water  ] Naples, FL
11:19:09 INFO: [Water  ] Fort Myers, FL
11:19:23 INFO: [Water  ] Port Manatee, FL
11:19:34 INFO: [Water  ] St Petersburg, FL
11:19:47 INFO: [Water  ] Old Port Tampa, FL
11:19:52 INFO: [Water  ] Cedar Key, FL
11:20:05 INFO: [Water  ] Apalachicola, FL
11:20:05 INFO: [No Data] Panama City, FL
11:20:17 INFO: [Water  ] Panama City Beach, FL
11:20:17 INFO: [No Data] Pensacola, FL
11:20:17 INFO: [No Data] Tolomato River station
11:20:31 INFO: [Water  ] Fred Howard Park
11:20:36 INFO: [Water  ] usf_tas_ngwlms
11:20:49 INFO: [Water  ] Big Carlos Pass
11:21:02 INFO: [Water  ] Shell Point
11:21:02 INFO: [No Data] St Lucie Inlet station
11:21:16 INFO: [Water  ] Naples Bay station
11:21:16 INFO: [No Data] Vero Beach station
11:21:16 INFO: [No Data] Ponce De Leon South station
11:21:16 INFO: [No Data] Melbourne station
11:21:30 INFO: [Water  ] Aripeka
11:21:30 INFO: [No Data] Bing's Landing station
11:21:30 INFO: [No Data] Binney Dock station
11:21:42 INFO: [Water  ] Gordon River Inlet station
11:21:42 INFO: Finished processing [USF_FVCOM]: http://crow.marine.usf.edu:8080/thredds/dodsC/WFS_SWAN_NF_model/USF_Ocean_Circulation_Group_West_Florida_Shelf_Daily_SWAN_Nowcast_Forecast_Wave_Model_Data_best.ncd
11:21:42 INFO: ******* Saving to file 2014-07-07/2014-07-07-COAWST_4.nc *******
11:21:47 INFO: [Land   ] Duck, NC
11:21:58 INFO: [Water  ] Oregon Inlet Marina, NC
11:22:03 INFO: [Water  ] USCG Station Hatteras, NC
11:22:16 INFO: [Land   ] Beaufort, NC
11:22:21 INFO: [Land   ] Wilmington, NC
11:22:26 INFO: [Water  ] Wrightsville Beach, NC
11:22:36 INFO: [Water  ] Springmaid Pier, SC
11:22:41 INFO: [Land   ] Oyster Landing (N Inlet Estuary), SC
11:22:46 INFO: [Land   ] Charleston, SC
11:22:51 INFO: [Land   ] Fernandina Beach, FL
11:22:56 INFO: [Land   ] Mayport (Bar Pilots Dock), FL
11:23:01 INFO: [Land   ] Dames Point, FL
11:23:06 INFO: [Land   ] Southbank Riverwalk, St Johns River, FL
11:23:11 INFO: [Land   ] I-295 Bridge, St Johns River, FL
11:23:16 INFO: [Land   ] Red Bay Point, St Johns River, FL
11:23:21 INFO: [Land   ] Racy Point, St Johns River, FL
11:23:25 INFO: [Land   ] Trident Pier, FL
11:23:35 INFO: [Water  ] Lake Worth Pier, FL
11:23:40 INFO: [Land   ] Virginia Key, FL
11:23:45 INFO: [Land   ] Vaca Key, FL
11:23:55 INFO: [Water  ] Key West, FL
11:23:59 INFO: [Land   ] Naples, FL
11:24:04 INFO: [Land   ] Fort Myers, FL
11:24:10 INFO: [Land   ] Port Manatee, FL
11:24:15 INFO: [Land   ] St Petersburg, FL
11:24:25 INFO: [Water  ] Old Port Tampa, FL
11:24:35 INFO: [Water  ] Cedar Key, FL
11:24:40 INFO: [Water  ] Apalachicola, FL
11:24:45 INFO: [Water  ] Panama City, FL
11:24:56 INFO: [Land   ] Panama City Beach, FL
11:25:01 INFO: [Water  ] Pensacola, FL
11:25:07 INFO: [Land   ] Tolomato River station
11:25:16 INFO: [Land   ] Fred Howard Park
11:25:46 INFO: [Land   ] usf_tas_ngwlms
11:25:55 INFO: [Water  ] Big Carlos Pass
11:26:00 INFO: [Land   ] Shell Point
11:26:18 INFO: [Water  ] St Lucie Inlet station
11:26:23 INFO: [Land   ] Naples Bay station
11:26:46 INFO: [Land   ] Vero Beach station
11:26:50 INFO: [Water  ] Ponce De Leon South station
11:26:55 INFO: [Land   ] Melbourne station
11:27:03 INFO: [Land   ] Aripeka
11:27:08 INFO: [Land   ] Bing's Landing station
11:27:22 INFO: [Land   ] Binney Dock station
11:27:27 INFO: [Land   ] Gordon River Inlet station
11:29:21 INFO: Finished processing [COAWST_4]: http://crow.marine.usf.edu:8080/thredds/dodsC/WFS_SWAN_NF_model/USF_Ocean_Circulation_Group_West_Florida_Shelf_Daily_SWAN_Nowcast_Forecast_Wave_Model_Data_best.ncd
11:29:21 INFO: ******* Saving to file 2014-07-07/2014-07-07-ESPRESSO.nc *******
11:29:25 INFO: [Land   ] Duck, NC
11:29:32 INFO: [Water  ] Oregon Inlet Marina, NC
11:29:35 INFO: [Land   ] USCG Station Hatteras, NC
11:29:39 INFO: [Water  ] Beaufort, NC
11:29:39 INFO: [No Data] Wilmington, NC
11:29:39 INFO: [No Data] Wrightsville Beach, NC
11:29:39 INFO: [No Data] Springmaid Pier, SC
11:29:39 INFO: [No Data] Oyster Landing (N Inlet Estuary), SC
11:29:39 INFO: [No Data] Charleston, SC
11:29:39 INFO: [No Data] Fernandina Beach, FL
11:29:39 INFO: [No Data] Mayport (Bar Pilots Dock), FL
11:29:39 INFO: [No Data] Dames Point, FL
11:29:39 INFO: [No Data] Southbank Riverwalk, St Johns River, FL
11:29:39 INFO: [No Data] I-295 Bridge, St Johns River, FL
11:29:39 INFO: [No Data] Red Bay Point, St Johns River, FL
11:29:39 INFO: [No Data] Racy Point, St Johns River, FL
11:29:39 INFO: [No Data] Trident Pier, FL
11:29:39 INFO: [No Data] Lake Worth Pier, FL
11:29:39 INFO: [No Data] Virginia Key, FL
11:29:39 INFO: [No Data] Vaca Key, FL
11:29:39 INFO: [No Data] Key West, FL
11:29:39 INFO: [No Data] Naples, FL
11:29:39 INFO: [No Data] Fort Myers, FL
11:29:39 INFO: [No Data] Port Manatee, FL
11:29:39 INFO: [No Data] St Petersburg, FL
11:29:39 INFO: [No Data] Old Port Tampa, FL
11:29:39 INFO: [No Data] Cedar Key, FL
11:29:39 INFO: [No Data] Apalachicola, FL
11:29:39 INFO: [No Data] Panama City, FL
11:29:39 INFO: [No Data] Panama City Beach, FL
11:29:39 INFO: [No Data] Pensacola, FL
11:29:39 INFO: [No Data] Tolomato River station
11:29:39 INFO: [No Data] Fred Howard Park
11:29:39 INFO: [No Data] usf_tas_ngwlms
11:29:39 INFO: [No Data] Big Carlos Pass
11:29:39 INFO: [No Data] Shell Point
11:29:39 INFO: [No Data] St Lucie Inlet station
11:29:39 INFO: [No Data] Naples Bay station
11:29:39 INFO: [No Data] Vero Beach station
11:29:39 INFO: [No Data] Ponce De Leon South station
11:29:39 INFO: [No Data] Melbourne station
11:29:39 INFO: [No Data] Aripeka
11:29:39 INFO: [No Data] Bing's Landing station
11:29:39 INFO: [No Data] Binney Dock station
11:29:39 INFO: [No Data] Gordon River Inlet station
11:29:54 INFO: Finished processing [ESPRESSO]: http://crow.marine.usf.edu:8080/thredds/dodsC/WFS_SWAN_NF_model/USF_Ocean_Circulation_Group_West_Florida_Shelf_Daily_SWAN_Nowcast_Forecast_Wave_Model_Data_best.ncd
11:29:54 INFO: 34.25 minutes
11:29:54 INFO: EOF
