05:25:02 INFO: *********************** Run information ************************
05:25:02 INFO: Run date: 2015-02-04 20:25:02
05:25:02 INFO: Download start: 2014-06-30 12:00:00
05:25:02 INFO: Download stop: 2014-07-07 12:00:00
05:25:02 INFO: Bounding box: -87.40, 24.25,-74.70, 36.70
05:25:02 INFO: *********************** Software version ***********************
05:25:02 INFO: Iris version: 1.7.2-DEV
05:25:02 INFO: owslib version: 0.8-dev
05:25:02 INFO: pyoos version: 0.6.2
05:25:07 INFO: ********************* Catalog information **********************
05:25:07 INFO: URL: http://www.ngdc.noaa.gov/geoportal/csw
05:25:07 INFO: CSW version: 2.0.2
05:25:07 INFO: Number of datasets available: 9
05:25:07 INFO: ***************************** CSW ******************************
05:25:07 INFO: USF FVCOM - Nowcast Aggregation
05:25:07 INFO: ROMS/TOMS 3.0 - New Floria Shelf Application
05:25:07 INFO: ROMS/TOMS 3.0 - South-Atlantic Bight and Gulf of Mexico
05:25:07 INFO: COAWST Forecast System : USGS : US East Coast and Gulf of Mexico (Experimental)
05:25:07 INFO: ROMS ESPRESSO Real-Time Operational IS4DVAR Forecast System Version 2 (NEW) 2013-present FMRC History (Best)
05:25:07 INFO: Barotropic Tide Model for the Pacific Basin
05:25:07 INFO: HYbrid Coordinate Ocean Model (HYCOM): Global
05:25:07 INFO: ESTOFS Storm Surge Model - Atlantic - v1.0.0 - NOAA - NCEP - ADCIRC
05:25:07 INFO: NECOFS GOM3 Wave - Northeast US - Latest Forecast
05:25:07 INFO: ***************************** DAP ******************************
05:25:07 INFO: http://crow.marine.usf.edu:8080/thredds/dodsC/FVCOM-Nowcast-Agg.nc.html
05:25:07 INFO: http://crow.marine.usf.edu:8080/thredds/dodsC/WFS_ROMS_NF_model/USF_Ocean_Circulation_Group_West_Florida_Shelf_Daily_ROMS_Nowcast_Forecast_Model_Data_best.ncd.html
05:25:07 INFO: http://geoport-dev.whoi.edu/thredds/dodsC/estofs/atlantic.html
05:25:07 INFO: http://geoport.whoi.edu/thredds/dodsC/coawst_4/use/fmrc/coawst_4_use_best.ncd.html
05:25:07 INFO: http://omgsrv1.meas.ncsu.edu:8080/thredds/dodsC/fmrc/sabgom/SABGOM_Forecast_Model_Run_Collection_best.ncd.html
05:25:07 INFO: http://oos.soest.hawaii.edu/thredds/dodsC/hioos/tide_pac.html
05:25:07 INFO: http://oos.soest.hawaii.edu/thredds/dodsC/pacioos/hycom/global.html
05:25:07 INFO: http://tds.marine.rutgers.edu/thredds/dodsC/roms/espresso/2013_da/his_Best/ESPRESSO_Real-Time_v2_History_Best_Available_best.ncd.html
05:25:07 INFO: http://www.smast.umassd.edu:8080/thredds/dodsC/FVCOM/NECOFS/Forecasts/NECOFS_WAVE_FORECAST.nc.html
05:25:07 INFO: ***************************** SOS ******************************
05:25:07 WARNING: USEAST not in the NGDC csw
05:25:07 WARNING: USF_SWAN not in the NGDC csw
05:25:12 WARNING: /home/filipe/miniconda/envs/SECOORA/lib/python2.7/site-packages/iris/fileformats/_pyke_rules/compiled_krb/fc_rules_cf_fc.py:1359: UserWarning: Failed to create 'time' dimension coordinate: The points array must be strictly monotonic.
Gracefully creating 'time' auxiliary coordinate instead.
  error=e_msg))

05:25:12 WARNING: Cannot get cube for: http://129.252.139.124/thredds/dodsC/fit.sispnj.met.nc
Cube does not contain ['sea_surface_height', 'sea_surface_elevation', 'sea_surface_height_above_geoid', 'sea_surface_height_above_sea_level', 'water_surface_height_above_reference_datum', 'sea_surface_height_above_reference_ellipsoid']
05:25:19 WARNING: Cannot get cube for: http://129.252.139.124/thredds/dodsC/usf.nfb.ngwlms.nc
Cube does not contain ['sea_surface_height', 'sea_surface_elevation', 'sea_surface_height_above_geoid', 'sea_surface_height_above_sea_level', 'water_surface_height_above_reference_datum', 'sea_surface_height_above_reference_ellipsoid']
05:25:30 WARNING: Cannot get cube for: http://129.252.139.124/thredds/dodsC/usf.c21.weatherpak.nc
Cube does not contain ['sea_surface_height', 'sea_surface_elevation', 'sea_surface_height_above_geoid', 'sea_surface_height_above_sea_level', 'water_surface_height_above_reference_datum', 'sea_surface_height_above_reference_ellipsoid']
05:25:44 WARNING: Cannot get cube for: http://129.252.139.124/thredds/dodsC/usf.c10.mcat.nc
Cube does not contain ['sea_surface_height', 'sea_surface_elevation', 'sea_surface_height_above_geoid', 'sea_surface_height_above_sea_level', 'water_surface_height_above_reference_datum', 'sea_surface_height_above_reference_ellipsoid']
05:25:46 WARNING: Cannot get cube for: http://129.252.139.124/thredds/dodsC/usf.c12.mcat.nc
Cube does not contain ['sea_surface_height', 'sea_surface_elevation', 'sea_surface_height_above_geoid', 'sea_surface_height_above_sea_level', 'water_surface_height_above_reference_datum', 'sea_surface_height_above_reference_ellipsoid']
05:25:49 WARNING: Cannot get cube for: http://129.252.139.124/thredds/dodsC/usf.c13.mcat.nc
Cube does not contain ['sea_surface_height', 'sea_surface_elevation', 'sea_surface_height_above_geoid', 'sea_surface_height_above_sea_level', 'water_surface_height_above_reference_datum', 'sea_surface_height_above_reference_ellipsoid']
05:25:51 WARNING: Cannot get cube for: http://129.252.139.124/thredds/dodsC/usf.c10.mcat_2011.nc
Cube does not contain ['sea_surface_height', 'sea_surface_elevation', 'sea_surface_height_above_geoid', 'sea_surface_height_above_sea_level', 'water_surface_height_above_reference_datum', 'sea_surface_height_above_reference_ellipsoid']
05:25:54 WARNING: Cannot get cube for: http://129.252.139.124/thredds/dodsC/usf.c12.mcat_2011.nc
Cube does not contain ['sea_surface_height', 'sea_surface_elevation', 'sea_surface_height_above_geoid', 'sea_surface_height_above_sea_level', 'water_surface_height_above_reference_datum', 'sea_surface_height_above_reference_ellipsoid']
05:25:56 WARNING: Cannot get cube for: http://129.252.139.124/thredds/dodsC/usf.c13.mcat_2011.nc
Cube does not contain ['sea_surface_height', 'sea_surface_elevation', 'sea_surface_height_above_geoid', 'sea_surface_height_above_sea_level', 'water_surface_height_above_reference_datum', 'sea_surface_height_above_reference_ellipsoid']
05:25:59 WARNING: Cannot get cube for: http://129.252.139.124/thredds/dodsC/carocoops.sun2.buoy.nc
Cube does not contain ['sea_surface_height', 'sea_surface_elevation', 'sea_surface_height_above_geoid', 'sea_surface_height_above_sea_level', 'water_surface_height_above_reference_datum', 'sea_surface_height_above_reference_ellipsoid']
05:26:02 WARNING: Cannot get cube for: http://129.252.139.124/thredds/dodsC/carocoops.frp2.buoy.nc
Cube does not contain ['sea_surface_height', 'sea_surface_elevation', 'sea_surface_height_above_geoid', 'sea_surface_height_above_sea_level', 'water_surface_height_above_reference_datum', 'sea_surface_height_above_reference_ellipsoid']
05:26:06 WARNING: Cannot get cube for: http://129.252.139.124/thredds/dodsC/carocoops.cap2.buoy.nc
Cube does not contain ['sea_surface_height', 'sea_surface_elevation', 'sea_surface_height_above_geoid', 'sea_surface_height_above_sea_level', 'water_surface_height_above_reference_datum', 'sea_surface_height_above_reference_ellipsoid']
05:26:09 WARNING: Cannot get cube for: http://129.252.139.124/thredds/dodsC/cormp.ilm3.buoy.nc
Cube does not contain ['sea_surface_height', 'sea_surface_elevation', 'sea_surface_height_above_geoid', 'sea_surface_height_above_sea_level', 'water_surface_height_above_reference_datum', 'sea_surface_height_above_reference_ellipsoid']
05:26:16 WARNING: Cannot get cube for: http://129.252.139.124/thredds/dodsC/cormp.ilm2.buoy.nc
Cube does not contain ['sea_surface_height', 'sea_surface_elevation', 'sea_surface_height_above_geoid', 'sea_surface_height_above_sea_level', 'water_surface_height_above_reference_datum', 'sea_surface_height_above_reference_ellipsoid']
05:26:17 WARNING: Cannot get cube for: http://129.252.139.124/thredds/dodsC/cormp.ilm1.buoy.nc
Cube does not contain ['sea_surface_height', 'sea_surface_elevation', 'sea_surface_height_above_geoid', 'sea_surface_height_above_sea_level', 'water_surface_height_above_reference_datum', 'sea_surface_height_above_reference_ellipsoid']
05:26:21 WARNING: Cannot get cube for: http://129.252.139.124/thredds/dodsC/cormp.lej3.buoy.nc
Cube does not contain ['sea_surface_height', 'sea_surface_elevation', 'sea_surface_height_above_geoid', 'sea_surface_height_above_sea_level', 'water_surface_height_above_reference_datum', 'sea_surface_height_above_reference_ellipsoid']
05:26:22 WARNING: /home/filipe/miniconda/envs/SECOORA/lib/python2.7/site-packages/iris/fileformats/_pyke_rules/compiled_krb/fc_rules_cf_fc.py:1196: UserWarning: Ignoring netCDF variable 'dissolved_oxygen_saturation' invalid units 'mg_L-1'
  warnings.warn(msg.format(msg_name, msg_units))

05:26:24 WARNING: /home/filipe/miniconda/envs/SECOORA/lib/python2.7/site-packages/iris/fileformats/_pyke_rules/compiled_krb/fc_rules_cf_fc.py:1196: UserWarning: Ignoring netCDF variable 'dissolved_oxygen' invalid units 'mg_L-1'
  warnings.warn(msg.format(msg_name, msg_units))

05:26:24 WARNING: /home/filipe/miniconda/envs/SECOORA/lib/python2.7/site-packages/iris/fileformats/_pyke_rules/compiled_krb/fc_rules_cf_fc.py:1196: UserWarning: Ignoring netCDF variable 'cdom' invalid units 'QSDE'
  warnings.warn(msg.format(msg_name, msg_units))

05:26:24 WARNING: /home/filipe/miniconda/envs/SECOORA/lib/python2.7/site-packages/iris/fileformats/_pyke_rules/compiled_krb/fc_rules_cf_fc.py:1196: UserWarning: Ignoring netCDF variable 'turbidity' invalid units 'ntu'
  warnings.warn(msg.format(msg_name, msg_units))

05:26:24 WARNING: /home/filipe/miniconda/envs/SECOORA/lib/python2.7/site-packages/iris/fileformats/_pyke_rules/compiled_krb/fc_rules_cf_fc.py:1196: UserWarning: Ignoring netCDF variable 'conductivity' invalid units 'mS_cm-1'
  warnings.warn(msg.format(msg_name, msg_units))

05:26:24 WARNING: Cannot get cube for: http://129.252.139.124/thredds/dodsC/sccf.gulfofmexico.wq.nc
Cube does not contain ['sea_surface_height', 'sea_surface_elevation', 'sea_surface_height_above_geoid', 'sea_surface_height_above_sea_level', 'water_surface_height_above_reference_datum', 'sea_surface_height_above_reference_ellipsoid']
05:26:26 WARNING: /home/filipe/miniconda/envs/SECOORA/lib/python2.7/site-packages/iris/fileformats/_pyke_rules/compiled_krb/fc_rules_cf_fc.py:1196: UserWarning: Ignoring netCDF variable 'nitrate' invalid units 'uM'
  warnings.warn(msg.format(msg_name, msg_units))

05:26:26 WARNING: Cannot get cube for: http://129.252.139.124/thredds/dodsC/sccf.shellpoint.wq.nc
Cube does not contain ['sea_surface_height', 'sea_surface_elevation', 'sea_surface_height_above_geoid', 'sea_surface_height_above_sea_level', 'water_surface_height_above_reference_datum', 'sea_surface_height_above_reference_ellipsoid']
05:26:30 WARNING: Cannot get cube for: http://129.252.139.124/thredds/dodsC/sccf.redfishpass.wq.nc
Cube does not contain ['sea_surface_height', 'sea_surface_elevation', 'sea_surface_height_above_geoid', 'sea_surface_height_above_sea_level', 'water_surface_height_above_reference_datum', 'sea_surface_height_above_reference_ellipsoid']
05:26:32 WARNING: Cannot get cube for: http://129.252.139.124/thredds/dodsC/sccf.tarponbay.wq.nc
Cube does not contain ['sea_surface_height', 'sea_surface_elevation', 'sea_surface_height_above_geoid', 'sea_surface_height_above_sea_level', 'water_surface_height_above_reference_datum', 'sea_surface_height_above_reference_ellipsoid']
05:26:35 WARNING: Cannot get cube for: http://129.252.139.124/thredds/dodsC/sccf.fortmyers.wq.nc
Cube does not contain ['sea_surface_height', 'sea_surface_elevation', 'sea_surface_height_above_geoid', 'sea_surface_height_above_sea_level', 'water_surface_height_above_reference_datum', 'sea_surface_height_above_reference_ellipsoid']
05:26:39 WARNING: /home/filipe/miniconda/envs/SECOORA/lib/python2.7/site-packages/iris/fileformats/_pyke_rules/compiled_krb/fc_rules_cf_fc.py:1196: UserWarning: Ignoring netCDF variable 'conductivity_2' invalid units 'mS_cm-1'
  warnings.warn(msg.format(msg_name, msg_units))

05:26:48 WARNING: Cannot get cube for: http://129.252.139.124/thredds/dodsC/fldep.redbaypoint..nc
istart must be different from istop! Got istart 43 and  istop 43
05:27:17 WARNING: Cannot get cube for: http://129.252.139.124/thredds/dodsC/lbhmc.2ndave.pier.nc
Cube does not contain ['sea_surface_height', 'sea_surface_elevation', 'sea_surface_height_above_geoid', 'sea_surface_height_above_sea_level', 'water_surface_height_above_reference_datum', 'sea_surface_height_above_reference_ellipsoid']
05:27:20 WARNING: /home/filipe/miniconda/envs/SECOORA/lib/python2.7/site-packages/iris/fileformats/_pyke_rules/compiled_krb/fc_rules_cf_fc.py:1196: UserWarning: Ignoring netCDF variable 'turbidity_2' invalid units 'ntu'
  warnings.warn(msg.format(msg_name, msg_units))

05:27:20 WARNING: /home/filipe/miniconda/envs/SECOORA/lib/python2.7/site-packages/iris/fileformats/_pyke_rules/compiled_krb/fc_rules_cf_fc.py:1196: UserWarning: Ignoring netCDF variable 'dissolved_oxygen_2' invalid units 'mg_L-1'
  warnings.warn(msg.format(msg_name, msg_units))

05:27:20 WARNING: Cannot get cube for: http://129.252.139.124/thredds/dodsC/lbhmc.cherrygrove.pier.nc
Cube does not contain ['sea_surface_height', 'sea_surface_elevation', 'sea_surface_height_above_geoid', 'sea_surface_height_above_sea_level', 'water_surface_height_above_reference_datum', 'sea_surface_height_above_reference_ellipsoid']
05:27:24 WARNING: Cannot get cube for: http://129.252.139.124/thredds/dodsC/lbhmc.apachepier.pier.nc
Cube does not contain ['sea_surface_height', 'sea_surface_elevation', 'sea_surface_height_above_geoid', 'sea_surface_height_above_sea_level', 'water_surface_height_above_reference_datum', 'sea_surface_height_above_reference_ellipsoid']
05:27:26 WARNING: Cannot get cube for: http://129.252.139.124/thredds/dodsC/enp.wiwf1.met.nc
Cube does not contain ['sea_surface_height', 'sea_surface_elevation', 'sea_surface_height_above_geoid', 'sea_surface_height_above_sea_level', 'water_surface_height_above_reference_datum', 'sea_surface_height_above_reference_ellipsoid']
05:27:30 WARNING: Cannot get cube for: http://129.252.139.124/thredds/dodsC/enp.lbrf1.met.nc
Cube does not contain ['sea_surface_height', 'sea_surface_elevation', 'sea_surface_height_above_geoid', 'sea_surface_height_above_sea_level', 'water_surface_height_above_reference_datum', 'sea_surface_height_above_reference_ellipsoid']
05:27:32 WARNING: Cannot get cube for: http://129.252.139.124/thredds/dodsC/enp.bobf1.met.nc
Cube does not contain ['sea_surface_height', 'sea_surface_elevation', 'sea_surface_height_above_geoid', 'sea_surface_height_above_sea_level', 'water_surface_height_above_reference_datum', 'sea_surface_height_above_reference_ellipsoid']
05:27:35 WARNING: Cannot get cube for: http://129.252.139.124/thredds/dodsC/enp.trrf1.met.nc
Cube does not contain ['sea_surface_height', 'sea_surface_elevation', 'sea_surface_height_above_geoid', 'sea_surface_height_above_sea_level', 'water_surface_height_above_reference_datum', 'sea_surface_height_above_reference_ellipsoid']
05:27:38 WARNING: Cannot get cube for: http://129.252.139.124/thredds/dodsC/enp.wwef1.met.nc
Cube does not contain ['sea_surface_height', 'sea_surface_elevation', 'sea_surface_height_above_geoid', 'sea_surface_height_above_sea_level', 'water_surface_height_above_reference_datum', 'sea_surface_height_above_reference_ellipsoid']
05:27:41 WARNING: Cannot get cube for: http://129.252.139.124/thredds/dodsC/enp.lrif1.met.nc
Cube does not contain ['sea_surface_height', 'sea_surface_elevation', 'sea_surface_height_above_geoid', 'sea_surface_height_above_sea_level', 'water_surface_height_above_reference_datum', 'sea_surface_height_above_reference_ellipsoid']
05:27:44 WARNING: Cannot get cube for: http://129.252.139.124/thredds/dodsC/enp.bwsf1.met.nc
Cube does not contain ['sea_surface_height', 'sea_surface_elevation', 'sea_surface_height_above_geoid', 'sea_surface_height_above_sea_level', 'water_surface_height_above_reference_datum', 'sea_surface_height_above_reference_ellipsoid']
05:27:48 WARNING: Cannot get cube for: http://129.252.139.124/thredds/dodsC/enp.pkyf1.met.nc
Cube does not contain ['sea_surface_height', 'sea_surface_elevation', 'sea_surface_height_above_geoid', 'sea_surface_height_above_sea_level', 'water_surface_height_above_reference_datum', 'sea_surface_height_above_reference_ellipsoid']
05:27:52 WARNING: Cannot get cube for: http://129.252.139.124/thredds/dodsC/enp.lmdf1.met.nc
Cube does not contain ['sea_surface_height', 'sea_surface_elevation', 'sea_surface_height_above_geoid', 'sea_surface_height_above_sea_level', 'water_surface_height_above_reference_datum', 'sea_surface_height_above_reference_ellipsoid']
05:27:58 WARNING: Cannot get cube for: http://129.252.139.124/thredds/dodsC/enp.cnbf1.met.nc
Cube does not contain ['sea_surface_height', 'sea_surface_elevation', 'sea_surface_height_above_geoid', 'sea_surface_height_above_sea_level', 'water_surface_height_above_reference_datum', 'sea_surface_height_above_reference_ellipsoid']
05:28:01 WARNING: Cannot get cube for: http://129.252.139.124/thredds/dodsC/enp.hcef1.met.nc
Cube does not contain ['sea_surface_height', 'sea_surface_elevation', 'sea_surface_height_above_geoid', 'sea_surface_height_above_sea_level', 'water_surface_height_above_reference_datum', 'sea_surface_height_above_reference_ellipsoid']
05:28:04 WARNING: Cannot get cube for: http://129.252.139.124/thredds/dodsC/enp.jkyf1.met.nc
Cube does not contain ['sea_surface_height', 'sea_surface_elevation', 'sea_surface_height_above_geoid', 'sea_surface_height_above_sea_level', 'water_surface_height_above_reference_datum', 'sea_surface_height_above_reference_ellipsoid']
05:28:08 WARNING: Cannot get cube for: http://129.252.139.124/thredds/dodsC/enp.wrbf1.met.nc
Cube does not contain ['sea_surface_height', 'sea_surface_elevation', 'sea_surface_height_above_geoid', 'sea_surface_height_above_sea_level', 'water_surface_height_above_reference_datum', 'sea_surface_height_above_reference_ellipsoid']
05:28:11 WARNING: Cannot get cube for: http://129.252.139.124/thredds/dodsC/enp.gbif1.met.nc
Cube does not contain ['sea_surface_height', 'sea_surface_elevation', 'sea_surface_height_above_geoid', 'sea_surface_height_above_sea_level', 'water_surface_height_above_reference_datum', 'sea_surface_height_above_reference_ellipsoid']
05:28:14 WARNING: Cannot get cube for: http://129.252.139.124/thredds/dodsC/enp.ppta1.met.nc
Cube does not contain ['sea_surface_height', 'sea_surface_elevation', 'sea_surface_height_above_geoid', 'sea_surface_height_above_sea_level', 'water_surface_height_above_reference_datum', 'sea_surface_height_above_reference_ellipsoid']
05:28:17 WARNING: Cannot get cube for: http://129.252.139.124/thredds/dodsC/enp.bdvf1.met.nc
Cube does not contain ['sea_surface_height', 'sea_surface_elevation', 'sea_surface_height_above_geoid', 'sea_surface_height_above_sea_level', 'water_surface_height_above_reference_datum', 'sea_surface_height_above_reference_ellipsoid']
05:28:20 WARNING: Cannot get cube for: http://129.252.139.124/thredds/dodsC/enp.lrkf1.met.nc
Cube does not contain ['sea_surface_height', 'sea_surface_elevation', 'sea_surface_height_above_geoid', 'sea_surface_height_above_sea_level', 'water_surface_height_above_reference_datum', 'sea_surface_height_above_reference_ellipsoid']
05:28:23 WARNING: Cannot get cube for: http://129.252.139.124/thredds/dodsC/enp.bnkf1.met.nc
Cube does not contain ['sea_surface_height', 'sea_surface_elevation', 'sea_surface_height_above_geoid', 'sea_surface_height_above_sea_level', 'water_surface_height_above_reference_datum', 'sea_surface_height_above_reference_ellipsoid']
05:28:27 WARNING: Cannot get cube for: http://129.252.139.124/thredds/dodsC/enp.gbtf1.met.nc
Cube does not contain ['sea_surface_height', 'sea_surface_elevation', 'sea_surface_height_above_geoid', 'sea_surface_height_above_sea_level', 'water_surface_height_above_reference_datum', 'sea_surface_height_above_reference_ellipsoid']
05:28:30 WARNING: Cannot get cube for: http://129.252.139.124/thredds/dodsC/enp.tcvf1.met.nc
Cube does not contain ['sea_surface_height', 'sea_surface_elevation', 'sea_surface_height_above_geoid', 'sea_surface_height_above_sea_level', 'water_surface_height_above_reference_datum', 'sea_surface_height_above_reference_ellipsoid']
05:28:32 WARNING: Cannot get cube for: http://129.252.139.124/thredds/dodsC/enp.canf1.met.nc
Cube does not contain ['sea_surface_height', 'sea_surface_elevation', 'sea_surface_height_above_geoid', 'sea_surface_height_above_sea_level', 'water_surface_height_above_reference_datum', 'sea_surface_height_above_reference_ellipsoid']
05:28:39 WARNING: Cannot get cube for: http://129.252.139.124/thredds/dodsC/enp.lbsf1.met.nc
Cube does not contain ['sea_surface_height', 'sea_surface_elevation', 'sea_surface_height_above_geoid', 'sea_surface_height_above_sea_level', 'water_surface_height_above_reference_datum', 'sea_surface_height_above_reference_ellipsoid']
05:28:42 WARNING: Cannot get cube for: http://129.252.139.124/thredds/dodsC/enp.mukf1.met.nc
Cube does not contain ['sea_surface_height', 'sea_surface_elevation', 'sea_surface_height_above_geoid', 'sea_surface_height_above_sea_level', 'water_surface_height_above_reference_datum', 'sea_surface_height_above_reference_ellipsoid']
05:28:45 WARNING: Cannot get cube for: http://129.252.139.124/thredds/dodsC/enp.dkkf1.met.nc
Cube does not contain ['sea_surface_height', 'sea_surface_elevation', 'sea_surface_height_above_geoid', 'sea_surface_height_above_sea_level', 'water_surface_height_above_reference_datum', 'sea_surface_height_above_reference_ellipsoid']
05:28:48 WARNING: Cannot get cube for: http://129.252.139.124/thredds/dodsC/enp.cwaf1.met.nc
Cube does not contain ['sea_surface_height', 'sea_surface_elevation', 'sea_surface_height_above_geoid', 'sea_surface_height_above_sea_level', 'water_surface_height_above_reference_datum', 'sea_surface_height_above_reference_ellipsoid']
05:28:59 WARNING: /home/filipe/miniconda/envs/SECOORA/lib/python2.7/site-packages/iris/fileformats/_pyke_rules/compiled_krb/fc_rules_cf_fc.py:1196: UserWarning: Ignoring netCDF variable 'phosphate' invalid units 'uM'
  warnings.warn(msg.format(msg_name, msg_units))

05:28:59 WARNING: /home/filipe/miniconda/envs/SECOORA/lib/python2.7/site-packages/iris/fileformats/_pyke_rules/compiled_krb/fc_rules_cf_fc.py:1196: UserWarning: Ignoring netCDF variable 'photosynthetically_available_radiation' invalid units 'micromoles_per_m^2'
  warnings.warn(msg.format(msg_name, msg_units))

05:28:59 WARNING: Cannot get cube for: http://129.252.139.124/thredds/dodsC/fau.lobo.1.nc
Cube does not contain ['sea_surface_height', 'sea_surface_elevation', 'sea_surface_height_above_geoid', 'sea_surface_height_above_sea_level', 'water_surface_height_above_reference_datum', 'sea_surface_height_above_reference_ellipsoid']
05:29:27 INFO: ********************* Collector offerings **********************
05:29:27 INFO: NOAA.NOS.CO-OPS SOS: 1030 offerings
05:29:40 INFO: SOS URL request: http://opendap.co-ops.nos.noaa.gov/ioos-dif-sos/SOS?eventTime=2014-06-30T12%3A00%3A00Z&service=SOS&offering=urn%3Aioos%3Anetwork%3ANOAA.NOS.CO-OPS%3AWaterLevelActive&request=GetObservation&version=1.0.0&responseFormat=text%2Fcsv&featureOfInterest=BBOX%3A-87.4%2C24.25%2C-74.7%2C36.7&observedProperty=water_surface_height_above_reference_datum
05:31:04 INFO: ************************* Observations *************************
05:31:04 INFO: **** Downloading to file 2014-07-07/2014-07-07-OBS_DATA.nc *****
05:31:17 WARNING: [8654467] USCG Station Hatteras, NC:
'Wrong Datum for this station: The correct Datum values are: MHHW, MHW, MTL, MSL, MLW, MLLW, STND'
05:31:18 WARNING: [8656483] Beaufort, NC:
'Wrong Datum for this station: The correct Datum values are: MHHW, MHW, MTL, MSL, MLW, MLLW, STND'
05:31:21 WARNING: [8658120] Wilmington, NC:
'Wrong Datum for this station: The correct Datum values are: MHHW, MHW, MTL, MSL, MLW, MLLW, STND'
05:33:15 WARNING: [8726520] St Petersburg, FL:
'Wrong Datum for this station: The correct Datum values are: MHHW, MHW, MTL, MSL, MLW, MLLW, STND'
05:33:40 WARNING: [8729210] Panama City Beach, FL:
'Wrong Datum for this station: The correct Datum values are: MHHW, MHW, MTL, MSL, MLW, MLLW, STND'
05:33:49 INFO: ********************* SECOORA Observations *********************
05:33:49 INFO:  Downloading to file 2014-07-07/2014-07-07-SECOORA_OBS_DATA.nc *
05:33:49 INFO: **************************** Models ****************************
05:33:49 INFO: 
[Reading url 1/11]: http://crow.marine.usf.edu:8080/thredds/dodsC/FVCOM-Nowcast-Agg.nc
05:33:58 INFO: 
[Reading url 2/11]: http://crow.marine.usf.edu:8080/thredds/dodsC/WFS_ROMS_NF_model/USF_Ocean_Circulation_Group_West_Florida_Shelf_Daily_ROMS_Nowcast_Forecast_Model_Data_best.ncd
05:34:02 INFO: 
[Reading url 3/11]: http://geoport-dev.whoi.edu/thredds/dodsC/estofs/atlantic
05:34:30 INFO: 
[Reading url 4/11]: http://geoport.whoi.edu/thredds/dodsC/coawst_4/use/fmrc/coawst_4_use_best.ncd
05:35:10 INFO: 
[Reading url 5/11]: http://omgsrv1.meas.ncsu.edu:8080/thredds/dodsC/fmrc/sabgom/SABGOM_Forecast_Model_Run_Collection_best.ncd
05:35:19 WARNING: Cannot get cube for: http://omgsrv1.meas.ncsu.edu:8080/thredds/dodsC/fmrc/sabgom/SABGOM_Forecast_Model_Run_Collection_best.ncd
istart must be different from istop! Got istart 0 and  istop 0
05:35:19 INFO: 
[Reading url 6/11]: http://oos.soest.hawaii.edu/thredds/dodsC/hioos/tide_pac
05:35:23 INFO: 
[Reading url 7/11]: http://oos.soest.hawaii.edu/thredds/dodsC/pacioos/hycom/global
05:35:25 INFO: 
[Reading url 8/11]: http://tds.marine.rutgers.edu/thredds/dodsC/roms/espresso/2013_da/his_Best/ESPRESSO_Real-Time_v2_History_Best_Available_best.ncd
05:35:33 INFO: 
[Reading url 9/11]: http://www.smast.umassd.edu:8080/thredds/dodsC/FVCOM/NECOFS/Forecasts/NECOFS_WAVE_FORECAST.nc
05:35:34 WARNING: Cannot get cube for: http://www.smast.umassd.edu:8080/thredds/dodsC/FVCOM/NECOFS/Forecasts/NECOFS_WAVE_FORECAST.nc
'Expected to find exactly 1  coordinate, but found none.'
05:35:34 INFO: 
[Reading url 10/11]: http://omgsrv1.meas.ncsu.edu:8080/thredds/dodsC/fmrc/us_east/US_East_Forecast_Model_Run_Collection_best.ncd
05:35:44 WARNING: Cannot get cube for: http://omgsrv1.meas.ncsu.edu:8080/thredds/dodsC/fmrc/us_east/US_East_Forecast_Model_Run_Collection_best.ncd
istart must be different from istop! Got istart 0 and  istop 0
05:35:44 INFO: 
[Reading url 11/11]: http://crow.marine.usf.edu:8080/thredds/dodsC/WFS_SWAN_NF_model/USF_Ocean_Circulation_Group_West_Florida_Shelf_Daily_SWAN_Nowcast_Forecast_Wave_Model_Data_best.ncd
05:35:45 WARNING: Cannot get cube for: http://crow.marine.usf.edu:8080/thredds/dodsC/WFS_SWAN_NF_model/USF_Ocean_Circulation_Group_West_Florida_Shelf_Daily_SWAN_Nowcast_Forecast_Wave_Model_Data_best.ncd
Cube does not contain ['sea_surface_height', 'sea_surface_elevation', 'sea_surface_height_above_geoid', 'sea_surface_height_above_sea_level', 'water_surface_height_above_reference_datum', 'sea_surface_height_above_reference_ellipsoid']
05:35:45 INFO: ******** Saving to file 2014-07-07/2014-07-07-ESTOFS.nc ********
05:35:52 INFO: [Water] Duck, NC
05:35:55 INFO: [Water] Oregon Inlet Marina, NC
05:36:00 INFO: [Water] USCG Station Hatteras, NC
05:36:02 INFO: [Water] Beaufort, NC
05:36:02 INFO: [No Data] Wilmington, NC
05:36:10 INFO: [Water] Wrightsville Beach, NC
05:36:20 INFO: [Water] Springmaid Pier, SC
05:36:22 INFO: [Water] Oyster Landing (N Inlet Estuary), SC
05:36:22 INFO: [No Data] Charleston, SC
05:36:24 INFO: [Water] Fernandina Beach, FL
05:36:28 INFO: [Water] Mayport (Bar Pilots Dock), FL
05:36:28 INFO: [No Data] Dames Point, FL
05:36:28 INFO: [No Data] Southbank Riverwalk, St Johns River, FL
05:36:28 INFO: [No Data] I-295 Bridge, St Johns River, FL
05:36:28 INFO: [No Data] Red Bay Point, St Johns River, FL
05:36:28 INFO: [No Data] Racy Point, St Johns River, FL
05:36:32 INFO: [Water] Trident Pier, FL
05:36:42 INFO: [Water] Vaca Key, FL
05:36:49 INFO: [Water] Key West, FL
05:36:59 INFO: [Water] Naples, FL
05:36:59 INFO: [No Data] Fort Myers, FL
05:37:10 INFO: [Water] Port Manatee, FL
05:37:20 INFO: [Water] St Petersburg, FL
05:37:34 INFO: [Water] Cedar Key, FL
05:37:45 INFO: [Water] Apalachicola, FL
05:37:45 INFO: [No Data] Panama City, FL
05:38:04 INFO: [Water] Panama City Beach, FL
05:38:04 INFO: [No Data] Pensacola, FL
05:38:09 INFO: [Water] Tolomato River station
05:38:25 INFO: [Water] Fred Howard Park
05:38:32 INFO: [Water] 
05:38:42 INFO: [Water] Big Carlos Pass
05:38:58 INFO: [Water] Shell Point
05:39:06 INFO: [Water] St Lucie Inlet station
05:39:08 INFO: [Water] Naples Bay station
05:39:12 INFO: [Water] Vero Beach station
05:39:19 INFO: [Water] Ponce De Leon South station
05:39:25 INFO: [Water] Melbourne station
05:39:39 INFO: [Water] Aripeka
05:39:43 INFO: [Water] Bing&#39;s Landing station
05:39:49 INFO: [Water] Binney Dock station
05:40:27 INFO: [Water] Gordon River Inlet station
05:40:27 INFO: Finished processing [ESTOFS]: http://crow.marine.usf.edu:8080/thredds/dodsC/WFS_SWAN_NF_model/USF_Ocean_Circulation_Group_West_Florida_Shelf_Daily_SWAN_Nowcast_Forecast_Wave_Model_Data_best.ncd
05:40:27 INFO: ******** Saving to file 2014-07-07/2014-07-07-BTMPB.nc *********
05:40:27 INFO: [No Data] Duck, NC
05:40:27 INFO: [No Data] Oregon Inlet Marina, NC
05:40:27 INFO: [No Data] USCG Station Hatteras, NC
05:40:27 INFO: [No Data] Beaufort, NC
05:40:27 INFO: [No Data] Wilmington, NC
05:40:27 INFO: [No Data] Wrightsville Beach, NC
05:40:27 INFO: [No Data] Springmaid Pier, SC
05:40:27 INFO: [No Data] Oyster Landing (N Inlet Estuary), SC
05:40:27 INFO: [No Data] Charleston, SC
05:40:27 INFO: [No Data] Fernandina Beach, FL
05:40:27 INFO: [No Data] Mayport (Bar Pilots Dock), FL
05:40:27 INFO: [No Data] Dames Point, FL
05:40:27 INFO: [No Data] Southbank Riverwalk, St Johns River, FL
05:40:27 INFO: [No Data] I-295 Bridge, St Johns River, FL
05:40:27 INFO: [No Data] Red Bay Point, St Johns River, FL
05:40:27 INFO: [No Data] Racy Point, St Johns River, FL
05:40:27 INFO: [No Data] Trident Pier, FL
05:40:27 INFO: [No Data] Vaca Key, FL
05:40:27 INFO: [No Data] Key West, FL
05:40:27 INFO: [No Data] Naples, FL
05:40:27 INFO: [No Data] Fort Myers, FL
05:40:27 INFO: [No Data] Port Manatee, FL
05:40:27 INFO: [No Data] St Petersburg, FL
05:40:27 INFO: [No Data] Cedar Key, FL
05:40:27 INFO: [No Data] Apalachicola, FL
05:40:27 INFO: [No Data] Panama City, FL
05:40:27 INFO: [No Data] Panama City Beach, FL
05:40:27 INFO: [No Data] Pensacola, FL
05:40:27 INFO: [No Data] Tolomato River station
05:40:27 INFO: [No Data] Fred Howard Park
05:40:27 INFO: [No Data] 
05:40:27 INFO: [No Data] Big Carlos Pass
05:40:27 INFO: [No Data] Shell Point
05:40:27 INFO: [No Data] St Lucie Inlet station
05:40:27 INFO: [No Data] Naples Bay station
05:40:27 INFO: [No Data] Vero Beach station
05:40:27 INFO: [No Data] Ponce De Leon South station
05:40:27 INFO: [No Data] Melbourne station
05:40:27 INFO: [No Data] Aripeka
05:40:27 INFO: [No Data] Bing&#39;s Landing station
05:40:27 INFO: [No Data] Binney Dock station
05:40:27 INFO: [No Data] Gordon River Inlet station
05:40:27 INFO: Finished processing [BTMPB]: http://crow.marine.usf.edu:8080/thredds/dodsC/WFS_SWAN_NF_model/USF_Ocean_Circulation_Group_West_Florida_Shelf_Daily_SWAN_Nowcast_Forecast_Wave_Model_Data_best.ncd
05:40:27 INFO: ******** Saving to file 2014-07-07/2014-07-07-HYCOM.nc *********
05:40:34 INFO: [Land ] Duck, NC
05:40:42 INFO: [Water] Oregon Inlet Marina, NC
05:40:46 INFO: [Land ] USCG Station Hatteras, NC
05:40:50 INFO: [Land ] Beaufort, NC
05:40:53 INFO: [Land ] Wilmington, NC
05:40:56 INFO: [Water] Wrightsville Beach, NC
05:40:56 INFO: [No Data] Springmaid Pier, SC
05:40:58 INFO: [Land ] Oyster Landing (N Inlet Estuary), SC
05:41:04 INFO: [Land ] Charleston, SC
05:41:07 INFO: [Land ] Fernandina Beach, FL
05:41:09 INFO: [Land ] Mayport (Bar Pilots Dock), FL
05:41:12 INFO: [Land ] Dames Point, FL
05:41:14 INFO: [Land ] Southbank Riverwalk, St Johns River, FL
05:41:17 INFO: [Land ] I-295 Bridge, St Johns River, FL
05:41:19 INFO: [Land ] Red Bay Point, St Johns River, FL
05:41:19 INFO: [No Data] Racy Point, St Johns River, FL
05:41:21 INFO: [Land ] Trident Pier, FL
05:41:24 INFO: [Land ] Vaca Key, FL
05:41:27 INFO: [Land ] Key West, FL
05:41:27 INFO: [No Data] Naples, FL
05:41:30 INFO: [Land ] Fort Myers, FL
05:41:32 INFO: [Land ] Port Manatee, FL
05:41:35 INFO: [Land ] St Petersburg, FL
05:41:37 INFO: [Land ] Cedar Key, FL
05:41:40 INFO: [Land ] Apalachicola, FL
05:41:42 INFO: [Land ] Panama City, FL
05:41:42 INFO: [No Data] Panama City Beach, FL
05:41:45 INFO: [Land ] Pensacola, FL
05:41:47 INFO: [Land ] Tolomato River station
05:41:50 INFO: [Land ] Fred Howard Park
05:41:52 INFO: [Land ] 
05:41:52 INFO: [No Data] Big Carlos Pass
05:41:55 INFO: [Land ] Shell Point
05:41:58 INFO: [Land ] St Lucie Inlet station
05:42:01 INFO: [Land ] Naples Bay station
05:42:04 INFO: [Land ] Vero Beach station
05:42:07 INFO: [Water] Ponce De Leon South station
05:42:10 INFO: [Land ] Melbourne station
05:42:13 INFO: [Land ] Aripeka
05:42:15 INFO: [Land ] Bing&#39;s Landing station
05:42:17 INFO: [Land ] Binney Dock station
05:42:20 INFO: [Land ] Gordon River Inlet station
05:42:20 INFO: Finished processing [HYCOM]: http://crow.marine.usf.edu:8080/thredds/dodsC/WFS_SWAN_NF_model/USF_Ocean_Circulation_Group_West_Florida_Shelf_Daily_SWAN_Nowcast_Forecast_Wave_Model_Data_best.ncd
05:42:20 INFO: ******* Saving to file 2014-07-07/2014-07-07-USF_ROMS.nc *******
05:42:20 INFO: [No Data] Duck, NC
05:42:20 INFO: [No Data] Oregon Inlet Marina, NC
05:42:20 INFO: [No Data] USCG Station Hatteras, NC
05:42:20 INFO: [No Data] Beaufort, NC
05:42:20 INFO: [No Data] Wilmington, NC
05:42:20 INFO: [No Data] Wrightsville Beach, NC
05:42:20 INFO: [No Data] Springmaid Pier, SC
05:42:20 INFO: [No Data] Oyster Landing (N Inlet Estuary), SC
05:42:20 INFO: [No Data] Charleston, SC
05:42:20 INFO: [No Data] Fernandina Beach, FL
05:42:20 INFO: [No Data] Mayport (Bar Pilots Dock), FL
05:42:20 INFO: [No Data] Dames Point, FL
05:42:20 INFO: [No Data] Southbank Riverwalk, St Johns River, FL
05:42:20 INFO: [No Data] I-295 Bridge, St Johns River, FL
05:42:20 INFO: [No Data] Red Bay Point, St Johns River, FL
05:42:20 INFO: [No Data] Racy Point, St Johns River, FL
05:42:20 INFO: [No Data] Trident Pier, FL
05:42:20 INFO: [No Data] Vaca Key, FL
05:42:20 INFO: [No Data] Key West, FL
05:42:21 INFO: [Water] Naples, FL
05:42:22 INFO: [Water] Fort Myers, FL
05:42:25 INFO: [Water] Port Manatee, FL
05:42:25 INFO: [No Data] St Petersburg, FL
05:42:28 INFO: [Water] Cedar Key, FL
05:42:30 INFO: [Water] Apalachicola, FL
05:42:32 INFO: [Water] Panama City, FL
05:42:34 INFO: [Water] Panama City Beach, FL
05:42:34 INFO: [No Data] Pensacola, FL
05:42:34 INFO: [No Data] Tolomato River station
05:42:35 INFO: [Water] Fred Howard Park
05:42:37 INFO: [Water] 
05:42:38 INFO: [Water] Big Carlos Pass
05:42:41 INFO: [Water] Shell Point
05:42:41 INFO: [No Data] St Lucie Inlet station
05:42:42 INFO: [Water] Naples Bay station
05:42:42 INFO: [No Data] Vero Beach station
05:42:42 INFO: [No Data] Ponce De Leon South station
05:42:42 INFO: [No Data] Melbourne station
05:42:44 INFO: [Water] Aripeka
05:42:44 INFO: [No Data] Bing&#39;s Landing station
05:42:44 INFO: [No Data] Binney Dock station
05:42:46 INFO: [Water] Gordon River Inlet station
05:43:04 INFO: Finished processing [USF_ROMS]: http://crow.marine.usf.edu:8080/thredds/dodsC/WFS_SWAN_NF_model/USF_Ocean_Circulation_Group_West_Florida_Shelf_Daily_SWAN_Nowcast_Forecast_Wave_Model_Data_best.ncd
05:43:04 INFO: ****** Saving to file 2014-07-07/2014-07-07-USF_FVCOM.nc *******
05:43:04 INFO: [No Data] Duck, NC
05:43:04 INFO: [No Data] Oregon Inlet Marina, NC
05:43:04 INFO: [No Data] USCG Station Hatteras, NC
05:43:04 INFO: [No Data] Beaufort, NC
05:43:04 INFO: [No Data] Wilmington, NC
05:43:04 INFO: [No Data] Wrightsville Beach, NC
05:43:04 INFO: [No Data] Springmaid Pier, SC
05:43:04 INFO: [No Data] Oyster Landing (N Inlet Estuary), SC
05:43:04 INFO: [No Data] Charleston, SC
05:43:04 INFO: [No Data] Fernandina Beach, FL
05:43:04 INFO: [No Data] Mayport (Bar Pilots Dock), FL
05:43:04 INFO: [No Data] Dames Point, FL
05:43:04 INFO: [No Data] Southbank Riverwalk, St Johns River, FL
05:43:04 INFO: [No Data] I-295 Bridge, St Johns River, FL
05:43:04 INFO: [No Data] Red Bay Point, St Johns River, FL
05:43:04 INFO: [No Data] Racy Point, St Johns River, FL
05:43:04 INFO: [No Data] Trident Pier, FL
05:43:22 INFO: [Water] Vaca Key, FL
05:43:33 INFO: [Water] Key West, FL
05:43:50 INFO: [Water] Naples, FL
05:44:05 INFO: [Water] Fort Myers, FL
05:44:23 INFO: [Water] Port Manatee, FL
05:44:35 INFO: [Water] St Petersburg, FL
05:44:43 INFO: [Water] Cedar Key, FL
05:44:54 INFO: [Water] Apalachicola, FL
05:44:54 INFO: [No Data] Panama City, FL
05:45:01 INFO: [Water] Panama City Beach, FL
05:45:01 INFO: [No Data] Pensacola, FL
05:45:01 INFO: [No Data] Tolomato River station
05:45:16 INFO: [Water] Fred Howard Park
05:45:21 INFO: [Water] 
05:45:41 INFO: [Water] Big Carlos Pass
05:45:50 INFO: [Water] Shell Point
05:45:50 INFO: [No Data] St Lucie Inlet station
05:45:59 INFO: [Water] Naples Bay station
05:45:59 INFO: [No Data] Vero Beach station
05:45:59 INFO: [No Data] Ponce De Leon South station
05:45:59 INFO: [No Data] Melbourne station
05:46:08 INFO: [Water] Aripeka
05:46:09 INFO: [No Data] Bing&#39;s Landing station
05:46:09 INFO: [No Data] Binney Dock station
05:46:18 INFO: [Water] Gordon River Inlet station
05:46:18 INFO: Finished processing [USF_FVCOM]: http://crow.marine.usf.edu:8080/thredds/dodsC/WFS_SWAN_NF_model/USF_Ocean_Circulation_Group_West_Florida_Shelf_Daily_SWAN_Nowcast_Forecast_Wave_Model_Data_best.ncd
05:46:18 INFO: ******* Saving to file 2014-07-07/2014-07-07-COAWST_4.nc *******
05:46:36 INFO: [Land ] Duck, NC
05:47:02 INFO: [Water] Oregon Inlet Marina, NC
05:47:12 INFO: [Water] USCG Station Hatteras, NC
05:47:39 INFO: [Land ] Beaufort, NC
05:47:51 INFO: [Land ] Wilmington, NC
05:48:04 INFO: [Water] Wrightsville Beach, NC
05:48:30 INFO: [Water] Springmaid Pier, SC
05:48:43 INFO: [Land ] Oyster Landing (N Inlet Estuary), SC
05:48:58 INFO: [Land ] Charleston, SC
05:49:07 INFO: [Land ] Fernandina Beach, FL
05:49:20 INFO: [Land ] Mayport (Bar Pilots Dock), FL
05:49:32 INFO: [Land ] Dames Point, FL
05:49:45 INFO: [Land ] Southbank Riverwalk, St Johns River, FL
05:49:59 INFO: [Land ] I-295 Bridge, St Johns River, FL
05:50:14 INFO: [Land ] Red Bay Point, St Johns River, FL
05:50:27 INFO: [Land ] Racy Point, St Johns River, FL
05:50:42 INFO: [Land ] Trident Pier, FL
05:50:52 INFO: [Land ] Vaca Key, FL
05:51:19 INFO: [Water] Key West, FL
05:51:30 INFO: [Land ] Naples, FL
05:51:43 INFO: [Land ] Fort Myers, FL
05:51:55 INFO: [Land ] Port Manatee, FL
05:52:10 INFO: [Land ] St Petersburg, FL
05:52:32 INFO: [Water] Cedar Key, FL
05:52:50 INFO: [Water] Apalachicola, FL
05:53:04 INFO: [Water] Panama City, FL
05:53:33 INFO: [Land ] Panama City Beach, FL
05:53:47 INFO: [Water] Pensacola, FL
05:53:59 INFO: [Land ] Tolomato River station
05:54:09 INFO: [Land ] Fred Howard Park
05:54:23 INFO: [Land ] 
05:54:35 INFO: [Water] Big Carlos Pass
05:54:50 INFO: [Land ] Shell Point
05:55:18 INFO: [Water] St Lucie Inlet station
05:55:30 INFO: [Land ] Naples Bay station
05:55:59 INFO: [Land ] Vero Beach station
05:56:15 INFO: [Water] Ponce De Leon South station
05:56:25 INFO: [Land ] Melbourne station
05:56:44 INFO: [Land ] Aripeka
05:56:59 INFO: [Land ] Bing&#39;s Landing station
05:57:27 INFO: [Land ] Binney Dock station
05:57:36 INFO: [Land ] Gordon River Inlet station
05:59:59 INFO: Finished processing [COAWST_4]: http://crow.marine.usf.edu:8080/thredds/dodsC/WFS_SWAN_NF_model/USF_Ocean_Circulation_Group_West_Florida_Shelf_Daily_SWAN_Nowcast_Forecast_Wave_Model_Data_best.ncd
05:59:59 INFO: ******* Saving to file 2014-07-07/2014-07-07-ESPRESSO.nc *******
06:00:05 INFO: [Land ] Duck, NC
06:00:07 INFO: [Water] Oregon Inlet Marina, NC
06:00:09 INFO: [Land ] USCG Station Hatteras, NC
06:00:11 INFO: [Water] Beaufort, NC
06:00:11 INFO: [No Data] Wilmington, NC
06:00:11 INFO: [No Data] Wrightsville Beach, NC
06:00:11 INFO: [No Data] Springmaid Pier, SC
06:00:11 INFO: [No Data] Oyster Landing (N Inlet Estuary), SC
06:00:11 INFO: [No Data] Charleston, SC
06:00:11 INFO: [No Data] Fernandina Beach, FL
06:00:11 INFO: [No Data] Mayport (Bar Pilots Dock), FL
06:00:11 INFO: [No Data] Dames Point, FL
06:00:11 INFO: [No Data] Southbank Riverwalk, St Johns River, FL
06:00:11 INFO: [No Data] I-295 Bridge, St Johns River, FL
06:00:11 INFO: [No Data] Red Bay Point, St Johns River, FL
06:00:11 INFO: [No Data] Racy Point, St Johns River, FL
06:00:11 INFO: [No Data] Trident Pier, FL
06:00:11 INFO: [No Data] Vaca Key, FL
06:00:11 INFO: [No Data] Key West, FL
06:00:11 INFO: [No Data] Naples, FL
06:00:11 INFO: [No Data] Fort Myers, FL
06:00:11 INFO: [No Data] Port Manatee, FL
06:00:11 INFO: [No Data] St Petersburg, FL
06:00:11 INFO: [No Data] Cedar Key, FL
06:00:11 INFO: [No Data] Apalachicola, FL
06:00:11 INFO: [No Data] Panama City, FL
06:00:11 INFO: [No Data] Panama City Beach, FL
06:00:11 INFO: [No Data] Pensacola, FL
06:00:11 INFO: [No Data] Tolomato River station
06:00:11 INFO: [No Data] Fred Howard Park
06:00:11 INFO: [No Data] 
06:00:11 INFO: [No Data] Big Carlos Pass
06:00:11 INFO: [No Data] Shell Point
06:00:11 INFO: [No Data] St Lucie Inlet station
06:00:11 INFO: [No Data] Naples Bay station
06:00:11 INFO: [No Data] Vero Beach station
06:00:11 INFO: [No Data] Ponce De Leon South station
06:00:11 INFO: [No Data] Melbourne station
06:00:11 INFO: [No Data] Aripeka
06:00:12 INFO: [No Data] Bing&#39;s Landing station
06:00:12 INFO: [No Data] Binney Dock station
06:00:12 INFO: [No Data] Gordon River Inlet station
06:00:16 INFO: Finished processing [ESPRESSO]: http://crow.marine.usf.edu:8080/thredds/dodsC/WFS_SWAN_NF_model/USF_Ocean_Circulation_Group_West_Florida_Shelf_Daily_SWAN_Nowcast_Forecast_Wave_Model_Data_best.ncd
06:00:20 WARNING: /home/filipe/miniconda/envs/SECOORA/lib/python2.7/site-packages/pandas/util/decorators.py:81: FutureWarning: the 'cols' keyword is deprecated, use 'subset' instead
  warnings.warn(msg, FutureWarning)

06:00:24 WARNING: /home/filipe/miniconda/envs/SECOORA/lib/python2.7/site-packages/numpy/core/_methods.py:59: RuntimeWarning: Mean of empty slice.
  warnings.warn("Mean of empty slice.", RuntimeWarning)

06:00:44 INFO: 36.22 minutes
06:00:44 INFO: EOF
