02:54:08 INFO: ************Saving data inside directory 2014-07-07*************
02:54:08 INFO: *********************** Run information ************************
02:54:08 INFO: Run date: 2015-11-25 17:54:08
02:54:08 INFO: Download start: 2014-07-01 12:00:00
02:54:08 INFO: Download stop: 2014-07-07 12:00:00
02:54:08 INFO: Bounding box: -87.40, 24.25,-74.70, 36.70
02:54:08 INFO: *********************** Software version ***********************
02:54:08 INFO: Iris version: 1.8.1
02:54:08 INFO: owslib version: 0.10.0
02:54:08 INFO: pyoos version: 0.6.2
02:54:15 INFO: ********************* Catalog information **********************
02:54:15 INFO: URL: http://www.ngdc.noaa.gov/geoportal/csw
02:54:15 INFO: CSW version: 2.0.2
02:54:15 INFO: Number of datasets available: 22
02:54:15 INFO: ***************************** CSW ******************************
02:54:15 INFO: USF FVCOM - Nowcast Aggregation
02:54:15 INFO: ROMS/TOMS 3.0 - South-Atlantic Bight and Gulf of Mexico
02:54:15 INFO: COAWST Forecast System : USGS : US East Coast and Gulf of Mexico (Experimental)
02:54:15 INFO: ROMS ESPRESSO Real-Time Operational IS4DVAR Forecast System Version 2 (NEW) 2013-present FMRC History
02:54:15 INFO: NOAA.NOS.CO-OPS SOS
02:54:15 INFO: HYbrid Coordinate Ocean Model (HYCOM): Global
02:54:15 INFO: ESTOFS Storm Surge Model - Atlantic - v1.0.0 - NOAA - NCEP - ADCIRC
02:54:15 INFO: fldep.bingslanding.
02:54:15 INFO: fldep.binneydock.
02:54:15 INFO: fldep.gordonriverinlet.
02:54:15 INFO: fldep.melbourne.
02:54:15 INFO: fldep.naplesbay.
02:54:15 INFO: fldep.poncedeleonsouth.
02:54:15 INFO: fldep.redbaypoint.
02:54:15 INFO: fldep.stlucieinlet.
02:54:15 INFO: fldep.tolomatoriver.
02:54:15 INFO: fldep.verobeach.
02:54:15 INFO: usf.apk.ngwlms
02:54:15 INFO: usf.bcp.ngwlms
02:54:15 INFO: usf.fhp.ngwlms
02:54:15 INFO: usf.shp.ngwlms
02:54:15 INFO: usf.tas.ngwlms
02:54:15 INFO: ***************************** SOS ******************************
02:54:15 INFO: http://opendap.co-ops.nos.noaa.gov/ioos-dif-sos/SOS?service=SOS&request=GetCapabilities&acceptVersions=1.0.0
02:54:15 INFO: http://tds.secoora.org/thredds/sos/fldep.bingslanding..nc?service=SOS&version=1.0.0&request=GetCapabilities
02:54:15 INFO: http://tds.secoora.org/thredds/sos/fldep.binneydock..nc?service=SOS&version=1.0.0&request=GetCapabilities
02:54:15 INFO: http://tds.secoora.org/thredds/sos/fldep.gordonriverinlet..nc?service=SOS&version=1.0.0&request=GetCapabilities
02:54:15 INFO: http://tds.secoora.org/thredds/sos/fldep.melbourne..nc?service=SOS&version=1.0.0&request=GetCapabilities
02:54:15 INFO: http://tds.secoora.org/thredds/sos/fldep.naplesbay..nc?service=SOS&version=1.0.0&request=GetCapabilities
02:54:15 INFO: http://tds.secoora.org/thredds/sos/fldep.poncedeleonsouth..nc?service=SOS&version=1.0.0&request=GetCapabilities
02:54:15 INFO: http://tds.secoora.org/thredds/sos/fldep.redbaypoint..nc?service=SOS&version=1.0.0&request=GetCapabilities
02:54:15 INFO: http://tds.secoora.org/thredds/sos/fldep.stlucieinlet..nc?service=SOS&version=1.0.0&request=GetCapabilities
02:54:15 INFO: http://tds.secoora.org/thredds/sos/fldep.tolomatoriver..nc?service=SOS&version=1.0.0&request=GetCapabilities
02:54:15 INFO: http://tds.secoora.org/thredds/sos/fldep.verobeach..nc?service=SOS&version=1.0.0&request=GetCapabilities
02:54:15 INFO: http://tds.secoora.org/thredds/sos/usf.apk.ngwlms.nc?service=SOS&version=1.0.0&request=GetCapabilities
02:54:15 INFO: http://tds.secoora.org/thredds/sos/usf.bcp.ngwlms.nc?service=SOS&version=1.0.0&request=GetCapabilities
02:54:15 INFO: http://tds.secoora.org/thredds/sos/usf.fhp.ngwlms.nc?service=SOS&version=1.0.0&request=GetCapabilities
02:54:15 INFO: http://tds.secoora.org/thredds/sos/usf.shp.ngwlms.nc?service=SOS&version=1.0.0&request=GetCapabilities
02:54:15 INFO: http://tds.secoora.org/thredds/sos/usf.tas.ngwlms.nc?service=SOS&version=1.0.0&request=GetCapabilities
02:54:15 INFO: ***************************** DAP ******************************
02:54:15 INFO: http://crow.marine.usf.edu:8080/thredds/dodsC/FVCOM-Nowcast-Agg.nc.html
02:54:15 INFO: http://geoport-dev.whoi.edu/thredds/dodsC/estofs/atlantic.html
02:54:15 INFO: http://geoport.whoi.edu/thredds/dodsC/coawst_4/use/fmrc/coawst_4_use_best.ncd.html
02:54:15 INFO: http://omgsrv1.meas.ncsu.edu:8080/thredds/dodsC/fmrc/sabgom/SABGOM_Forecast_Model_Run_Collection_best.ncd.html
02:54:15 INFO: http://oos.soest.hawaii.edu/thredds/dodsC/pacioos/hycom/global.html
02:54:15 INFO: http://tds.marine.rutgers.edu/thredds/dodsC/roms/espresso/2013_da/his/ESPRESSO_Real-Time_v2_History_Best.html
02:54:15 INFO: http://tds.secoora.org/thredds/dodsC/fldep.bingslanding..nc.html
02:54:15 INFO: http://tds.secoora.org/thredds/dodsC/fldep.binneydock..nc.html
02:54:15 INFO: http://tds.secoora.org/thredds/dodsC/fldep.gordonriverinlet..nc.html
02:54:15 INFO: http://tds.secoora.org/thredds/dodsC/fldep.melbourne..nc.html
02:54:15 INFO: http://tds.secoora.org/thredds/dodsC/fldep.naplesbay..nc.html
02:54:15 INFO: http://tds.secoora.org/thredds/dodsC/fldep.poncedeleonsouth..nc.html
02:54:15 INFO: http://tds.secoora.org/thredds/dodsC/fldep.redbaypoint..nc.html
02:54:15 INFO: http://tds.secoora.org/thredds/dodsC/fldep.stlucieinlet..nc.html
02:54:15 INFO: http://tds.secoora.org/thredds/dodsC/fldep.tolomatoriver..nc.html
02:54:15 INFO: http://tds.secoora.org/thredds/dodsC/fldep.verobeach..nc.html
02:54:15 INFO: http://tds.secoora.org/thredds/dodsC/usf.apk.ngwlms.nc.html
02:54:15 INFO: http://tds.secoora.org/thredds/dodsC/usf.bcp.ngwlms.nc.html
02:54:15 INFO: http://tds.secoora.org/thredds/dodsC/usf.fhp.ngwlms.nc.html
02:54:15 INFO: http://tds.secoora.org/thredds/dodsC/usf.shp.ngwlms.nc.html
02:54:15 INFO: http://tds.secoora.org/thredds/dodsC/usf.tas.ngwlms.nc.html
02:55:38 INFO: ************************* Filtered DAP *************************
02:55:38 INFO: http://crow.marine.usf.edu:8080/thredds/dodsC/FVCOM-Nowcast-Agg.nc.html
02:55:38 INFO: http://geoport-dev.whoi.edu/thredds/dodsC/estofs/atlantic.html
02:55:38 INFO: http://geoport.whoi.edu/thredds/dodsC/coawst_4/use/fmrc/coawst_4_use_best.ncd.html
02:55:38 INFO: http://omgsrv1.meas.ncsu.edu:8080/thredds/dodsC/fmrc/sabgom/SABGOM_Forecast_Model_Run_Collection_best.ncd.html
02:55:38 INFO: http://oos.soest.hawaii.edu/thredds/dodsC/pacioos/hycom/global.html
02:55:38 INFO: http://tds.marine.rutgers.edu/thredds/dodsC/roms/espresso/2013_da/his/ESPRESSO_Real-Time_v2_History_Best.html
02:55:38 WARNING: USEAST not in the NGDC csw
02:55:38 WARNING: USF_ROMS not in the NGDC csw
02:55:38 WARNING: USF_SWAN not in the NGDC csw
02:55:46 WARNING: Cannot get cube for: http://129.252.139.124/thredds/dodsC/fit.sispnj.met.nc
Cannot find ['sea_surface_height', 'sea_surface_elevation', 'sea_surface_height_above_geoid', 'sea_surface_height_above_sea_level', 'water_surface_height_above_reference_datum', 'sea_surface_height_above_reference_ellipsoid'] in http://129.252.139.124/thredds/dodsC/fit.sispnj.met.nc.
02:55:58 WARNING: Cannot get cube for: http://129.252.139.124/thredds/dodsC/usf.c10.imet.nc
Cannot find ['sea_surface_height', 'sea_surface_elevation', 'sea_surface_height_above_geoid', 'sea_surface_height_above_sea_level', 'water_surface_height_above_reference_datum', 'sea_surface_height_above_reference_ellipsoid'] in http://129.252.139.124/thredds/dodsC/usf.c10.imet.nc.
02:56:06 WARNING: Cannot get cube for: http://129.252.139.124/thredds/dodsC/usf.nfb.ngwlms.nc
Cannot find ['sea_surface_height', 'sea_surface_elevation', 'sea_surface_height_above_geoid', 'sea_surface_height_above_sea_level', 'water_surface_height_above_reference_datum', 'sea_surface_height_above_reference_ellipsoid'] in http://129.252.139.124/thredds/dodsC/usf.nfb.ngwlms.nc.
02:56:26 WARNING: Cannot get cube for: http://129.252.139.124/thredds/dodsC/usf.c21.weatherpak.nc
Cannot find ['sea_surface_height', 'sea_surface_elevation', 'sea_surface_height_above_geoid', 'sea_surface_height_above_sea_level', 'water_surface_height_above_reference_datum', 'sea_surface_height_above_reference_ellipsoid'] in http://129.252.139.124/thredds/dodsC/usf.c21.weatherpak.nc.
02:56:48 WARNING: Cannot get cube for: http://129.252.139.124/thredds/dodsC/usf.c10.mcat.nc
Cannot find ['sea_surface_height', 'sea_surface_elevation', 'sea_surface_height_above_geoid', 'sea_surface_height_above_sea_level', 'water_surface_height_above_reference_datum', 'sea_surface_height_above_reference_ellipsoid'] in http://129.252.139.124/thredds/dodsC/usf.c10.mcat.nc.
02:56:54 WARNING: Cannot get cube for: http://129.252.139.124/thredds/dodsC/c10_salinity_water_temp.nc
Cannot find ['sea_surface_height', 'sea_surface_elevation', 'sea_surface_height_above_geoid', 'sea_surface_height_above_sea_level', 'water_surface_height_above_reference_datum', 'sea_surface_height_above_reference_ellipsoid'] in http://129.252.139.124/thredds/dodsC/c10_salinity_water_temp.nc.
02:57:00 WARNING: Cannot get cube for: http://129.252.139.124/thredds/dodsC/QC_C10_Temp_full.nc
Cannot find ['sea_surface_height', 'sea_surface_elevation', 'sea_surface_height_above_geoid', 'sea_surface_height_above_sea_level', 'water_surface_height_above_reference_datum', 'sea_surface_height_above_reference_ellipsoid'] in http://129.252.139.124/thredds/dodsC/QC_C10_Temp_full.nc.
02:57:09 WARNING: Cannot get cube for: http://129.252.139.124/thredds/dodsC/QC_C10_Sal_full.nc
Cannot find ['sea_surface_height', 'sea_surface_elevation', 'sea_surface_height_above_geoid', 'sea_surface_height_above_sea_level', 'water_surface_height_above_reference_datum', 'sea_surface_height_above_reference_ellipsoid'] in http://129.252.139.124/thredds/dodsC/QC_C10_Sal_full.nc.
02:57:12 WARNING: Cannot get cube for: http://129.252.139.124/thredds/dodsC/usf.c12.mcat.nc
Cannot find ['sea_surface_height', 'sea_surface_elevation', 'sea_surface_height_above_geoid', 'sea_surface_height_above_sea_level', 'water_surface_height_above_reference_datum', 'sea_surface_height_above_reference_ellipsoid'] in http://129.252.139.124/thredds/dodsC/usf.c12.mcat.nc.
02:57:17 WARNING: Cannot get cube for: http://129.252.139.124/thredds/dodsC/usf.c13.mcat.nc
Cannot find ['sea_surface_height', 'sea_surface_elevation', 'sea_surface_height_above_geoid', 'sea_surface_height_above_sea_level', 'water_surface_height_above_reference_datum', 'sea_surface_height_above_reference_ellipsoid'] in http://129.252.139.124/thredds/dodsC/usf.c13.mcat.nc.
02:57:20 WARNING: Cannot get cube for: http://129.252.139.124/thredds/dodsC/usf.c10.mcat_2011.nc
Cannot find ['sea_surface_height', 'sea_surface_elevation', 'sea_surface_height_above_geoid', 'sea_surface_height_above_sea_level', 'water_surface_height_above_reference_datum', 'sea_surface_height_above_reference_ellipsoid'] in http://129.252.139.124/thredds/dodsC/usf.c10.mcat_2011.nc.
02:57:25 WARNING: Cannot get cube for: http://129.252.139.124/thredds/dodsC/usf.c12.mcat_2011.nc
Cannot find ['sea_surface_height', 'sea_surface_elevation', 'sea_surface_height_above_geoid', 'sea_surface_height_above_sea_level', 'water_surface_height_above_reference_datum', 'sea_surface_height_above_reference_ellipsoid'] in http://129.252.139.124/thredds/dodsC/usf.c12.mcat_2011.nc.
02:57:29 WARNING: Cannot get cube for: http://129.252.139.124/thredds/dodsC/usf.c13.mcat_2011.nc
Cannot find ['sea_surface_height', 'sea_surface_elevation', 'sea_surface_height_above_geoid', 'sea_surface_height_above_sea_level', 'water_surface_height_above_reference_datum', 'sea_surface_height_above_reference_ellipsoid'] in http://129.252.139.124/thredds/dodsC/usf.c13.mcat_2011.nc.
02:57:35 WARNING: Cannot get cube for: http://129.252.139.124/thredds/dodsC/carocoops.sun2.buoy.nc
Cannot find ['sea_surface_height', 'sea_surface_elevation', 'sea_surface_height_above_geoid', 'sea_surface_height_above_sea_level', 'water_surface_height_above_reference_datum', 'sea_surface_height_above_reference_ellipsoid'] in http://129.252.139.124/thredds/dodsC/carocoops.sun2.buoy.nc.
02:57:41 WARNING: Cannot get cube for: http://129.252.139.124/thredds/dodsC/carocoops.frp2.buoy.nc
Cannot find ['sea_surface_height', 'sea_surface_elevation', 'sea_surface_height_above_geoid', 'sea_surface_height_above_sea_level', 'water_surface_height_above_reference_datum', 'sea_surface_height_above_reference_ellipsoid'] in http://129.252.139.124/thredds/dodsC/carocoops.frp2.buoy.nc.
02:57:48 WARNING: Cannot get cube for: http://129.252.139.124/thredds/dodsC/carocoops.cap2.buoy.nc
Cannot find ['sea_surface_height', 'sea_surface_elevation', 'sea_surface_height_above_geoid', 'sea_surface_height_above_sea_level', 'water_surface_height_above_reference_datum', 'sea_surface_height_above_reference_ellipsoid'] in http://129.252.139.124/thredds/dodsC/carocoops.cap2.buoy.nc.
02:57:56 WARNING: Cannot get cube for: http://129.252.139.124/thredds/dodsC/cormp.ilm3.buoy.nc
Cannot find ['sea_surface_height', 'sea_surface_elevation', 'sea_surface_height_above_geoid', 'sea_surface_height_above_sea_level', 'water_surface_height_above_reference_datum', 'sea_surface_height_above_reference_ellipsoid'] in http://129.252.139.124/thredds/dodsC/cormp.ilm3.buoy.nc.
02:58:07 WARNING: Cannot get cube for: http://129.252.139.124/thredds/dodsC/cormp.ilm2.buoy.nc
Cannot find ['sea_surface_height', 'sea_surface_elevation', 'sea_surface_height_above_geoid', 'sea_surface_height_above_sea_level', 'water_surface_height_above_reference_datum', 'sea_surface_height_above_reference_ellipsoid'] in http://129.252.139.124/thredds/dodsC/cormp.ilm2.buoy.nc.
02:58:10 WARNING: Cannot get cube for: http://129.252.139.124/thredds/dodsC/cormp.ilm1.buoy.nc
Cannot find ['sea_surface_height', 'sea_surface_elevation', 'sea_surface_height_above_geoid', 'sea_surface_height_above_sea_level', 'water_surface_height_above_reference_datum', 'sea_surface_height_above_reference_ellipsoid'] in http://129.252.139.124/thredds/dodsC/cormp.ilm1.buoy.nc.
02:58:15 WARNING: Cannot get cube for: http://129.252.139.124/thredds/dodsC/cormp.lej3.buoy.nc
Cannot find ['sea_surface_height', 'sea_surface_elevation', 'sea_surface_height_above_geoid', 'sea_surface_height_above_sea_level', 'water_surface_height_above_reference_datum', 'sea_surface_height_above_reference_ellipsoid'] in http://129.252.139.124/thredds/dodsC/cormp.lej3.buoy.nc.
02:58:22 WARNING: Cannot get cube for: http://129.252.139.124/thredds/dodsC/sccf.gulfofmexico.wq.nc
Cannot find ['sea_surface_height', 'sea_surface_elevation', 'sea_surface_height_above_geoid', 'sea_surface_height_above_sea_level', 'water_surface_height_above_reference_datum', 'sea_surface_height_above_reference_ellipsoid'] in http://129.252.139.124/thredds/dodsC/sccf.gulfofmexico.wq.nc.
02:58:30 WARNING: Cannot get cube for: http://129.252.139.124/thredds/dodsC/sccf.shellpoint.wq.nc
Cannot find ['sea_surface_height', 'sea_surface_elevation', 'sea_surface_height_above_geoid', 'sea_surface_height_above_sea_level', 'water_surface_height_above_reference_datum', 'sea_surface_height_above_reference_ellipsoid'] in http://129.252.139.124/thredds/dodsC/sccf.shellpoint.wq.nc.
02:58:38 WARNING: Cannot get cube for: http://129.252.139.124/thredds/dodsC/sccf.redfishpass.wq.nc
Cannot find ['sea_surface_height', 'sea_surface_elevation', 'sea_surface_height_above_geoid', 'sea_surface_height_above_sea_level', 'water_surface_height_above_reference_datum', 'sea_surface_height_above_reference_ellipsoid'] in http://129.252.139.124/thredds/dodsC/sccf.redfishpass.wq.nc.
02:58:45 WARNING: Cannot get cube for: http://129.252.139.124/thredds/dodsC/sccf.tarponbay.wq.nc
Cannot find ['sea_surface_height', 'sea_surface_elevation', 'sea_surface_height_above_geoid', 'sea_surface_height_above_sea_level', 'water_surface_height_above_reference_datum', 'sea_surface_height_above_reference_ellipsoid'] in http://129.252.139.124/thredds/dodsC/sccf.tarponbay.wq.nc.
02:58:51 WARNING: Cannot get cube for: http://129.252.139.124/thredds/dodsC/sccf.fortmyers.wq.nc
Cannot find ['sea_surface_height', 'sea_surface_elevation', 'sea_surface_height_above_geoid', 'sea_surface_height_above_sea_level', 'water_surface_height_above_reference_datum', 'sea_surface_height_above_reference_ellipsoid'] in http://129.252.139.124/thredds/dodsC/sccf.fortmyers.wq.nc.
02:59:16 WARNING: Cannot get cube for: http://129.252.139.124/thredds/dodsC/fldep.redbaypoint..nc
istart must be different from istop! Got istart 43 and  istop 43
03:00:35 WARNING: Cannot get cube for: http://129.252.139.124/thredds/dodsC/lbhmc.2ndave.pier.nc
Cannot find ['sea_surface_height', 'sea_surface_elevation', 'sea_surface_height_above_geoid', 'sea_surface_height_above_sea_level', 'water_surface_height_above_reference_datum', 'sea_surface_height_above_reference_ellipsoid'] in http://129.252.139.124/thredds/dodsC/lbhmc.2ndave.pier.nc.
03:00:49 WARNING: Cannot get cube for: http://129.252.139.124/thredds/dodsC/lbhmc.cherrygrove.pier.nc
Cannot find ['sea_surface_height', 'sea_surface_elevation', 'sea_surface_height_above_geoid', 'sea_surface_height_above_sea_level', 'water_surface_height_above_reference_datum', 'sea_surface_height_above_reference_ellipsoid'] in http://129.252.139.124/thredds/dodsC/lbhmc.cherrygrove.pier.nc.
03:00:59 WARNING: Cannot get cube for: http://129.252.139.124/thredds/dodsC/lbhmc.apachepier.pier.nc
Cannot find ['sea_surface_height', 'sea_surface_elevation', 'sea_surface_height_above_geoid', 'sea_surface_height_above_sea_level', 'water_surface_height_above_reference_datum', 'sea_surface_height_above_reference_ellipsoid'] in http://129.252.139.124/thredds/dodsC/lbhmc.apachepier.pier.nc.
03:01:06 WARNING: Cannot get cube for: http://129.252.139.124/thredds/dodsC/enp.wiwf1.met.nc
Cannot find ['sea_surface_height', 'sea_surface_elevation', 'sea_surface_height_above_geoid', 'sea_surface_height_above_sea_level', 'water_surface_height_above_reference_datum', 'sea_surface_height_above_reference_ellipsoid'] in http://129.252.139.124/thredds/dodsC/enp.wiwf1.met.nc.
03:01:15 WARNING: Cannot get cube for: http://129.252.139.124/thredds/dodsC/enp.lbrf1.met.nc
Cannot find ['sea_surface_height', 'sea_surface_elevation', 'sea_surface_height_above_geoid', 'sea_surface_height_above_sea_level', 'water_surface_height_above_reference_datum', 'sea_surface_height_above_reference_ellipsoid'] in http://129.252.139.124/thredds/dodsC/enp.lbrf1.met.nc.
03:01:23 WARNING: Cannot get cube for: http://129.252.139.124/thredds/dodsC/enp.bobf1.met.nc
Cannot find ['sea_surface_height', 'sea_surface_elevation', 'sea_surface_height_above_geoid', 'sea_surface_height_above_sea_level', 'water_surface_height_above_reference_datum', 'sea_surface_height_above_reference_ellipsoid'] in http://129.252.139.124/thredds/dodsC/enp.bobf1.met.nc.
03:01:35 WARNING: Cannot get cube for: http://129.252.139.124/thredds/dodsC/enp.trrf1.met.nc
Cannot find ['sea_surface_height', 'sea_surface_elevation', 'sea_surface_height_above_geoid', 'sea_surface_height_above_sea_level', 'water_surface_height_above_reference_datum', 'sea_surface_height_above_reference_ellipsoid'] in http://129.252.139.124/thredds/dodsC/enp.trrf1.met.nc.
03:01:43 WARNING: Cannot get cube for: http://129.252.139.124/thredds/dodsC/enp.wwef1.met.nc
Cannot find ['sea_surface_height', 'sea_surface_elevation', 'sea_surface_height_above_geoid', 'sea_surface_height_above_sea_level', 'water_surface_height_above_reference_datum', 'sea_surface_height_above_reference_ellipsoid'] in http://129.252.139.124/thredds/dodsC/enp.wwef1.met.nc.
03:01:51 WARNING: Cannot get cube for: http://129.252.139.124/thredds/dodsC/enp.lrif1.met.nc
Cannot find ['sea_surface_height', 'sea_surface_elevation', 'sea_surface_height_above_geoid', 'sea_surface_height_above_sea_level', 'water_surface_height_above_reference_datum', 'sea_surface_height_above_reference_ellipsoid'] in http://129.252.139.124/thredds/dodsC/enp.lrif1.met.nc.
03:01:57 WARNING: Cannot get cube for: http://129.252.139.124/thredds/dodsC/enp.bwsf1.met.nc
Cannot find ['sea_surface_height', 'sea_surface_elevation', 'sea_surface_height_above_geoid', 'sea_surface_height_above_sea_level', 'water_surface_height_above_reference_datum', 'sea_surface_height_above_reference_ellipsoid'] in http://129.252.139.124/thredds/dodsC/enp.bwsf1.met.nc.
03:02:04 WARNING: Cannot get cube for: http://129.252.139.124/thredds/dodsC/enp.pkyf1.met.nc
Cannot find ['sea_surface_height', 'sea_surface_elevation', 'sea_surface_height_above_geoid', 'sea_surface_height_above_sea_level', 'water_surface_height_above_reference_datum', 'sea_surface_height_above_reference_ellipsoid'] in http://129.252.139.124/thredds/dodsC/enp.pkyf1.met.nc.
03:02:12 WARNING: Cannot get cube for: http://129.252.139.124/thredds/dodsC/enp.lmdf1.met.nc
Cannot find ['sea_surface_height', 'sea_surface_elevation', 'sea_surface_height_above_geoid', 'sea_surface_height_above_sea_level', 'water_surface_height_above_reference_datum', 'sea_surface_height_above_reference_ellipsoid'] in http://129.252.139.124/thredds/dodsC/enp.lmdf1.met.nc.
03:02:19 WARNING: Cannot get cube for: http://129.252.139.124/thredds/dodsC/enp.cnbf1.met.nc
Cannot find ['sea_surface_height', 'sea_surface_elevation', 'sea_surface_height_above_geoid', 'sea_surface_height_above_sea_level', 'water_surface_height_above_reference_datum', 'sea_surface_height_above_reference_ellipsoid'] in http://129.252.139.124/thredds/dodsC/enp.cnbf1.met.nc.
03:02:27 WARNING: Cannot get cube for: http://129.252.139.124/thredds/dodsC/enp.hcef1.met.nc
Cannot find ['sea_surface_height', 'sea_surface_elevation', 'sea_surface_height_above_geoid', 'sea_surface_height_above_sea_level', 'water_surface_height_above_reference_datum', 'sea_surface_height_above_reference_ellipsoid'] in http://129.252.139.124/thredds/dodsC/enp.hcef1.met.nc.
03:02:35 WARNING: Cannot get cube for: http://129.252.139.124/thredds/dodsC/enp.jkyf1.met.nc
Cannot find ['sea_surface_height', 'sea_surface_elevation', 'sea_surface_height_above_geoid', 'sea_surface_height_above_sea_level', 'water_surface_height_above_reference_datum', 'sea_surface_height_above_reference_ellipsoid'] in http://129.252.139.124/thredds/dodsC/enp.jkyf1.met.nc.
03:02:43 WARNING: Cannot get cube for: http://129.252.139.124/thredds/dodsC/enp.wrbf1.met.nc
Cannot find ['sea_surface_height', 'sea_surface_elevation', 'sea_surface_height_above_geoid', 'sea_surface_height_above_sea_level', 'water_surface_height_above_reference_datum', 'sea_surface_height_above_reference_ellipsoid'] in http://129.252.139.124/thredds/dodsC/enp.wrbf1.met.nc.
03:02:50 WARNING: Cannot get cube for: http://129.252.139.124/thredds/dodsC/enp.gbif1.met.nc
Cannot find ['sea_surface_height', 'sea_surface_elevation', 'sea_surface_height_above_geoid', 'sea_surface_height_above_sea_level', 'water_surface_height_above_reference_datum', 'sea_surface_height_above_reference_ellipsoid'] in http://129.252.139.124/thredds/dodsC/enp.gbif1.met.nc.
03:03:00 WARNING: Cannot get cube for: http://129.252.139.124/thredds/dodsC/enp.ppta1.met.nc
Cannot find ['sea_surface_height', 'sea_surface_elevation', 'sea_surface_height_above_geoid', 'sea_surface_height_above_sea_level', 'water_surface_height_above_reference_datum', 'sea_surface_height_above_reference_ellipsoid'] in http://129.252.139.124/thredds/dodsC/enp.ppta1.met.nc.
03:03:08 WARNING: Cannot get cube for: http://129.252.139.124/thredds/dodsC/enp.bdvf1.met.nc
Cannot find ['sea_surface_height', 'sea_surface_elevation', 'sea_surface_height_above_geoid', 'sea_surface_height_above_sea_level', 'water_surface_height_above_reference_datum', 'sea_surface_height_above_reference_ellipsoid'] in http://129.252.139.124/thredds/dodsC/enp.bdvf1.met.nc.
03:03:17 WARNING: Cannot get cube for: http://129.252.139.124/thredds/dodsC/enp.lrkf1.met.nc
Cannot find ['sea_surface_height', 'sea_surface_elevation', 'sea_surface_height_above_geoid', 'sea_surface_height_above_sea_level', 'water_surface_height_above_reference_datum', 'sea_surface_height_above_reference_ellipsoid'] in http://129.252.139.124/thredds/dodsC/enp.lrkf1.met.nc.
03:03:24 WARNING: Cannot get cube for: http://129.252.139.124/thredds/dodsC/enp.bnkf1.met.nc
Cannot find ['sea_surface_height', 'sea_surface_elevation', 'sea_surface_height_above_geoid', 'sea_surface_height_above_sea_level', 'water_surface_height_above_reference_datum', 'sea_surface_height_above_reference_ellipsoid'] in http://129.252.139.124/thredds/dodsC/enp.bnkf1.met.nc.
03:03:31 WARNING: Cannot get cube for: http://129.252.139.124/thredds/dodsC/enp.gbtf1.met.nc
Cannot find ['sea_surface_height', 'sea_surface_elevation', 'sea_surface_height_above_geoid', 'sea_surface_height_above_sea_level', 'water_surface_height_above_reference_datum', 'sea_surface_height_above_reference_ellipsoid'] in http://129.252.139.124/thredds/dodsC/enp.gbtf1.met.nc.
03:03:38 WARNING: Cannot get cube for: http://129.252.139.124/thredds/dodsC/enp.tcvf1.met.nc
Cannot find ['sea_surface_height', 'sea_surface_elevation', 'sea_surface_height_above_geoid', 'sea_surface_height_above_sea_level', 'water_surface_height_above_reference_datum', 'sea_surface_height_above_reference_ellipsoid'] in http://129.252.139.124/thredds/dodsC/enp.tcvf1.met.nc.
03:03:48 WARNING: Cannot get cube for: http://129.252.139.124/thredds/dodsC/enp.canf1.met.nc
Cannot find ['sea_surface_height', 'sea_surface_elevation', 'sea_surface_height_above_geoid', 'sea_surface_height_above_sea_level', 'water_surface_height_above_reference_datum', 'sea_surface_height_above_reference_ellipsoid'] in http://129.252.139.124/thredds/dodsC/enp.canf1.met.nc.
03:03:57 WARNING: Cannot get cube for: http://129.252.139.124/thredds/dodsC/enp.lbsf1.met.nc
Cannot find ['sea_surface_height', 'sea_surface_elevation', 'sea_surface_height_above_geoid', 'sea_surface_height_above_sea_level', 'water_surface_height_above_reference_datum', 'sea_surface_height_above_reference_ellipsoid'] in http://129.252.139.124/thredds/dodsC/enp.lbsf1.met.nc.
03:04:10 WARNING: Cannot get cube for: http://129.252.139.124/thredds/dodsC/enp.mukf1.met.nc
Cannot find ['sea_surface_height', 'sea_surface_elevation', 'sea_surface_height_above_geoid', 'sea_surface_height_above_sea_level', 'water_surface_height_above_reference_datum', 'sea_surface_height_above_reference_ellipsoid'] in http://129.252.139.124/thredds/dodsC/enp.mukf1.met.nc.
03:04:21 WARNING: Cannot get cube for: http://129.252.139.124/thredds/dodsC/enp.dkkf1.met.nc
Cannot find ['sea_surface_height', 'sea_surface_elevation', 'sea_surface_height_above_geoid', 'sea_surface_height_above_sea_level', 'water_surface_height_above_reference_datum', 'sea_surface_height_above_reference_ellipsoid'] in http://129.252.139.124/thredds/dodsC/enp.dkkf1.met.nc.
03:04:31 WARNING: Cannot get cube for: http://129.252.139.124/thredds/dodsC/enp.cwaf1.met.nc
Cannot find ['sea_surface_height', 'sea_surface_elevation', 'sea_surface_height_above_geoid', 'sea_surface_height_above_sea_level', 'water_surface_height_above_reference_datum', 'sea_surface_height_above_reference_ellipsoid'] in http://129.252.139.124/thredds/dodsC/enp.cwaf1.met.nc.
03:04:55 WARNING: Cannot get cube for: http://129.252.139.124/thredds/dodsC/fau.lobo.1.nc
Cannot find ['sea_surface_height', 'sea_surface_elevation', 'sea_surface_height_above_geoid', 'sea_surface_height_above_sea_level', 'water_surface_height_above_reference_datum', 'sea_surface_height_above_reference_ellipsoid'] in http://129.252.139.124/thredds/dodsC/fau.lobo.1.nc.
03:05:07 INFO: ********************* Collector offerings **********************
03:05:07 INFO: NOAA.NOS.CO-OPS SOS: 1055 offerings
03:05:09 INFO: SOS URL request: http://opendap.co-ops.nos.noaa.gov/ioos-dif-sos/SOS?eventTime=2014-07-01T12%3A00%3A00Z&service=SOS&offering=urn%3Aioos%3Anetwork%3ANOAA.NOS.CO-OPS%3AWaterLevelActive&request=GetObservation&version=1.0.0&responseFormat=text%2Fcsv&featureOfInterest=BBOX%3A-87.4%2C24.25%2C-74.7%2C36.7&observedProperty=water_surface_height_above_reference_datum
03:07:10 INFO: ************************* Observations *************************
03:07:10 INFO: **** Downloading to file 2014-07-07/2014-07-07-OBS_DATA.nc *****
03:07:13 WARNING: /home/filipe/miniconda/envs/secoora-skill/lib/python2.7/site-packages/utilities/secoora.py:694: FutureWarning: the 'cols' keyword is deprecated, use 'subset' instead
  df = df.drop_duplicates(cols='date_time').set_index('date_time')

03:07:16 WARNING: [8654467] USCG Station Hatteras, NC:
'Wrong Datum for this station: The correct Datum values are: MHHW, MHW, MTL, MSL, MLW, MLLW, STND'
03:07:16 WARNING: [8656483] Beaufort, NC:
'Wrong Datum for this station: The correct Datum values are: MHHW, MHW, MTL, MSL, MLW, MLLW, STND'
03:07:17 WARNING: [8658120] Wilmington, NC:
'Wrong Datum for this station: The correct Datum values are: MHHW, MHW, MTL, MSL, MLW, MLLW, STND'
03:08:07 WARNING: [8726520] St Petersburg, FL:
'Wrong Datum for this station: The correct Datum values are: MHHW, MHW, MTL, MSL, MLW, MLLW, STND'
03:08:07 WARNING: [8726607] Old Port Tampa, FL:
'Wrong Datum for this station: The correct Datum values are: MHHW, MHW, MTL, MSL, MLW, MLLW, STND'
03:08:16 WARNING: [8729210] Panama City Beach, FL:
'Wrong Datum for this station: The correct Datum values are: MHHW, MHW, MTL, MSL, MLW, MLLW, STND'
03:08:20 WARNING: /home/filipe/miniconda/envs/secoora-skill/lib/python2.7/site-packages/iris/fileformats/netcdf.py:1783: UserWarning: NetCDF default saving behaviour currently assigns the outermost dimensions to unlimited. This behaviour is to be deprecated, in favour of no automatic assignment. To switch to the new behaviour, set iris.FUTURE.netcdf_no_unlimited to True.
  warnings.warn(msg)

03:08:20 WARNING: /home/filipe/miniconda/envs/secoora-skill/lib/python2.7/site-packages/ipykernel/__main__.py:19: FutureWarning: the take_last=True keyword is deprecated, use keep='last' instead

03:08:20 INFO: ********************* SECOORA Observations *********************
03:08:20 INFO:  Downloading to file 2014-07-07/2014-07-07-SECOORA_OBS_DATA.nc *
03:08:20 INFO: **************************** Models ****************************
03:08:20 INFO: 
[Reading url 1/9]: http://crow.marine.usf.edu:8080/thredds/dodsC/FVCOM-Nowcast-Agg.nc
03:08:41 INFO: 
[Reading url 2/9]: http://geoport-dev.whoi.edu/thredds/dodsC/estofs/atlantic
03:09:38 INFO: 
[Reading url 3/9]: http://geoport.whoi.edu/thredds/dodsC/coawst_4/use/fmrc/coawst_4_use_best.ncd
03:10:26 INFO: 
[Reading url 4/9]: http://omgarch1.meas.ncsu.edu:8080/thredds/dodsC/fmrc/sabgom/SABGOM_Forecast_Model_Run_Collection_best.ncd
03:10:27 WARNING: Cannot get cube for: http://omgarch1.meas.ncsu.edu:8080/thredds/dodsC/fmrc/sabgom/SABGOM_Forecast_Model_Run_Collection_best.ncd
NetCDF: file not found
03:10:27 INFO: 
[Reading url 5/9]: http://oos.soest.hawaii.edu/thredds/dodsC/pacioos/hycom/global
03:10:32 INFO: 
[Reading url 6/9]: http://tds.marine.rutgers.edu/thredds/dodsC/roms/espresso/2013_da/his/ESPRESSO_Real-Time_v2_History_Best
03:10:47 INFO: 
[Reading url 7/9]: http://omgsrv1.meas.ncsu.edu:8080/thredds/dodsC/fmrc/us_east/US_East_Forecast_Model_Run_Collection_best.ncd
03:11:17 WARNING: Cannot get cube for: http://omgsrv1.meas.ncsu.edu:8080/thredds/dodsC/fmrc/us_east/US_East_Forecast_Model_Run_Collection_best.ncd
istart must be different from istop! Got istart 0 and  istop 0
03:11:17 INFO: 
[Reading url 8/9]: http://crow.marine.usf.edu:8080/thredds/dodsC/WFS_ROMS_NF_model/USF_Ocean_Circulation_Group_West_Florida_Shelf_Daily_ROMS_Nowcast_Forecast_Model_Data_best.ncd
03:11:30 INFO: 
[Reading url 9/9]: http://crow.marine.usf.edu:8080/thredds/dodsC/WFS_SWAN_NF_model/USF_Ocean_Circulation_Group_West_Florida_Shelf_Daily_SWAN_Nowcast_Forecast_Wave_Model_Data_best.ncd
03:11:33 WARNING: Cannot get cube for: http://crow.marine.usf.edu:8080/thredds/dodsC/WFS_SWAN_NF_model/USF_Ocean_Circulation_Group_West_Florida_Shelf_Daily_SWAN_Nowcast_Forecast_Wave_Model_Data_best.ncd
Cannot find ['sea_surface_height', 'sea_surface_elevation', 'sea_surface_height_above_geoid', 'sea_surface_height_above_sea_level', 'water_surface_height_above_reference_datum', 'sea_surface_height_above_reference_ellipsoid'] in http://crow.marine.usf.edu:8080/thredds/dodsC/WFS_SWAN_NF_model/USF_Ocean_Circulation_Group_West_Florida_Shelf_Daily_SWAN_Nowcast_Forecast_Wave_Model_Data_best.ncd.
03:11:33 INFO: ******** Saving to file 2014-07-07/2014-07-07-ESTOFS.nc ********
03:11:37 INFO: [Water  ] Duck, NC
03:11:41 INFO: [Water  ] Oregon Inlet Marina, NC
03:11:45 INFO: [Water  ] USCG Station Hatteras, NC
03:11:49 INFO: [Water  ] Beaufort, NC
03:11:49 INFO: [No Data] Wilmington, NC
03:11:53 INFO: [Water  ] Wrightsville Beach, NC
03:11:57 INFO: [Water  ] Springmaid Pier, SC
03:12:01 INFO: [Water  ] Oyster Landing (N Inlet Estuary), SC
03:12:01 INFO: [No Data] Charleston, SC
03:12:04 INFO: [Water  ] Fernandina Beach, FL
03:12:07 INFO: [Water  ] Mayport (Bar Pilots Dock), FL
03:12:07 INFO: [No Data] Dames Point, FL
03:12:07 INFO: [No Data] Southbank Riverwalk, St Johns River, FL
03:12:07 INFO: [No Data] I-295 Bridge, St Johns River, FL
03:12:07 INFO: [No Data] Red Bay Point, St Johns River, FL
03:12:07 INFO: [No Data] Racy Point, St Johns River, FL
03:12:10 INFO: [Water  ] Trident Pier, FL
03:12:14 INFO: [Water  ] Lake Worth Pier, FL
03:12:17 INFO: [Water  ] Virginia Key, FL
03:12:20 INFO: [Water  ] Vaca Key, FL
03:12:24 INFO: [Water  ] Key West, FL
03:12:27 INFO: [Water  ] Naples, FL
03:12:27 INFO: [No Data] Fort Myers, FL
03:12:31 INFO: [Water  ] Port Manatee, FL
03:12:34 INFO: [Water  ] St Petersburg, FL
03:12:37 INFO: [Water  ] Old Port Tampa, FL
03:12:40 INFO: [Water  ] Cedar Key, FL
03:12:44 INFO: [Water  ] Apalachicola, FL
03:12:44 INFO: [No Data] Panama City, FL
03:12:47 INFO: [Water  ] Panama City Beach, FL
03:12:47 INFO: [No Data] Pensacola, FL
03:12:51 INFO: [Water  ] Tolomato River station
03:12:53 INFO: [Water  ] Fred Howard Park
03:12:55 INFO: [Water  ] usf_tas_ngwlms
03:12:58 INFO: [Water  ] Big Carlos Pass
03:13:01 INFO: [Water  ] Shell Point
03:13:04 INFO: [Water  ] St Lucie Inlet station
03:13:06 INFO: [Water  ] Naples Bay station
03:13:10 INFO: [Water  ] Vero Beach station
03:13:12 INFO: [Water  ] Ponce De Leon South station
03:13:14 INFO: [Water  ] Melbourne station
03:13:17 INFO: [Water  ] Aripeka
03:13:20 INFO: [Water  ] Bing's Landing station
03:13:23 INFO: [Water  ] Binney Dock station
03:13:26 INFO: [Water  ] Gordon River Inlet station
03:13:26 INFO: Finished processing ESTOFS

03:13:26 INFO: ******** Saving to file 2014-07-07/2014-07-07-HYCOM.nc *********
03:13:46 INFO: [Land   ] Duck, NC
03:13:51 INFO: [Water  ] Oregon Inlet Marina, NC
03:14:00 INFO: [Land   ] USCG Station Hatteras, NC
03:14:11 INFO: [Land   ] Beaufort, NC
03:14:17 INFO: [Land   ] Wilmington, NC
03:14:22 INFO: [Water  ] Wrightsville Beach, NC
03:14:22 INFO: [No Data] Springmaid Pier, SC
03:14:29 INFO: [Land   ] Oyster Landing (N Inlet Estuary), SC
03:14:36 INFO: [Land   ] Charleston, SC
03:14:41 INFO: [Land   ] Fernandina Beach, FL
03:14:47 INFO: [Land   ] Mayport (Bar Pilots Dock), FL
03:14:52 INFO: [Land   ] Dames Point, FL
03:14:56 INFO: [Land   ] Southbank Riverwalk, St Johns River, FL
03:15:01 INFO: [Land   ] I-295 Bridge, St Johns River, FL
03:15:05 INFO: [Land   ] Red Bay Point, St Johns River, FL
03:15:05 INFO: [No Data] Racy Point, St Johns River, FL
03:15:14 INFO: [Land   ] Trident Pier, FL
03:15:20 INFO: [Water  ] Lake Worth Pier, FL
03:15:24 INFO: [Land   ] Virginia Key, FL
03:15:30 INFO: [Land   ] Vaca Key, FL
03:15:40 INFO: [Land   ] Key West, FL
03:15:40 INFO: [No Data] Naples, FL
03:15:52 INFO: [Land   ] Fort Myers, FL
03:16:07 INFO: [Land   ] Port Manatee, FL
03:16:29 INFO: [Land   ] St Petersburg, FL
03:19:09 WARNING: /home/filipe/miniconda/envs/secoora-skill/lib/python2.7/site-packages/ipykernel/__main__.py:28: DeprecationWarning: BaseException.message has been deprecated as of Python 2.6

03:19:09 INFO: [Failed] Old Port Tampa, FL. (NetCDF: DAP server error)
03:19:10 INFO: [Failed] Cedar Key, FL. (NetCDF: DAP server error)
03:19:11 INFO: [Failed] Apalachicola, FL. (NetCDF: DAP server error)
03:19:12 INFO: [Failed] Panama City, FL. (NetCDF: DAP server error)
03:19:12 INFO: [No Data] Panama City Beach, FL
03:19:12 INFO: [Failed] Pensacola, FL. (NetCDF: DAP server error)
03:19:13 INFO: [Failed] Tolomato River station. (NetCDF: DAP server error)
03:19:14 INFO: [Failed] Fred Howard Park. (NetCDF: DAP server error)
03:19:15 INFO: [Failed] usf_tas_ngwlms. (NetCDF: DAP server error)
03:19:15 INFO: [No Data] Big Carlos Pass
03:19:16 INFO: [Failed] Shell Point. (NetCDF: DAP server error)
03:19:16 INFO: [Failed] St Lucie Inlet station. (NetCDF: DAP server error)
03:19:17 INFO: [Failed] Naples Bay station. (NetCDF: DAP server error)
03:19:18 INFO: [Failed] Vero Beach station. (NetCDF: DAP server error)
03:19:19 INFO: [Failed] Ponce De Leon South station. (NetCDF: DAP server error)
03:19:20 INFO: [Failed] Melbourne station. (NetCDF: DAP server error)
03:19:20 INFO: [Failed] Aripeka. (NetCDF: DAP server error)
03:19:21 INFO: [Failed] Bing's Landing station. (NetCDF: DAP server error)
03:19:22 INFO: [Failed] Binney Dock station. (NetCDF: DAP server error)
03:19:23 INFO: [Failed] Gordon River Inlet station. (NetCDF: DAP server error)
03:19:23 INFO: Finished processing HYCOM

03:19:23 INFO: ******* Saving to file 2014-07-07/2014-07-07-USF_ROMS.nc *******
03:19:23 INFO: [No Data] Duck, NC
03:19:23 INFO: [No Data] Oregon Inlet Marina, NC
03:19:23 INFO: [No Data] USCG Station Hatteras, NC
03:19:23 INFO: [No Data] Beaufort, NC
03:19:23 INFO: [No Data] Wilmington, NC
03:19:23 INFO: [No Data] Wrightsville Beach, NC
03:19:23 INFO: [No Data] Springmaid Pier, SC
03:19:23 INFO: [No Data] Oyster Landing (N Inlet Estuary), SC
03:19:23 INFO: [No Data] Charleston, SC
03:19:23 INFO: [No Data] Fernandina Beach, FL
03:19:23 INFO: [No Data] Mayport (Bar Pilots Dock), FL
03:19:23 INFO: [No Data] Dames Point, FL
03:19:23 INFO: [No Data] Southbank Riverwalk, St Johns River, FL
03:19:23 INFO: [No Data] I-295 Bridge, St Johns River, FL
03:19:23 INFO: [No Data] Red Bay Point, St Johns River, FL
03:19:23 INFO: [No Data] Racy Point, St Johns River, FL
03:19:23 INFO: [No Data] Trident Pier, FL
03:19:23 INFO: [No Data] Lake Worth Pier, FL
03:19:23 INFO: [No Data] Virginia Key, FL
03:19:29 INFO: [Water  ] Vaca Key, FL
03:19:29 INFO: [No Data] Key West, FL
03:19:32 INFO: [Water  ] Naples, FL
03:19:36 INFO: [Water  ] Fort Myers, FL
03:19:38 INFO: [Water  ] Port Manatee, FL
03:19:41 INFO: [Water  ] St Petersburg, FL
03:19:44 INFO: [Water  ] Old Port Tampa, FL
03:19:47 INFO: [Water  ] Cedar Key, FL
03:19:51 INFO: [Water  ] Apalachicola, FL
03:19:53 INFO: [Water  ] Panama City, FL
03:19:56 INFO: [Water  ] Panama City Beach, FL
03:19:56 INFO: [No Data] Pensacola, FL
03:19:56 INFO: [No Data] Tolomato River station
03:20:00 INFO: [Water  ] Fred Howard Park
03:20:04 INFO: [Water  ] usf_tas_ngwlms
03:20:08 INFO: [Water  ] Big Carlos Pass
03:20:12 INFO: [Water  ] Shell Point
03:20:12 INFO: [No Data] St Lucie Inlet station
03:20:17 INFO: [Water  ] Naples Bay station
03:20:17 INFO: [No Data] Vero Beach station
03:20:17 INFO: [No Data] Ponce De Leon South station
03:20:17 INFO: [No Data] Melbourne station
03:20:21 INFO: [Water  ] Aripeka
03:20:21 INFO: [No Data] Bing's Landing station
03:20:21 INFO: [No Data] Binney Dock station
03:20:24 INFO: [Water  ] Gordon River Inlet station
03:21:17 INFO: Finished processing USF_ROMS

03:21:17 INFO: ****** Saving to file 2014-07-07/2014-07-07-USF_FVCOM.nc *******
03:21:17 INFO: [No Data] Duck, NC
03:21:17 INFO: [No Data] Oregon Inlet Marina, NC
03:21:17 INFO: [No Data] USCG Station Hatteras, NC
03:21:17 INFO: [No Data] Beaufort, NC
03:21:17 INFO: [No Data] Wilmington, NC
03:21:17 INFO: [No Data] Wrightsville Beach, NC
03:21:17 INFO: [No Data] Springmaid Pier, SC
03:21:17 INFO: [No Data] Oyster Landing (N Inlet Estuary), SC
03:21:17 INFO: [No Data] Charleston, SC
03:21:17 INFO: [No Data] Fernandina Beach, FL
03:21:17 INFO: [No Data] Mayport (Bar Pilots Dock), FL
03:21:17 INFO: [No Data] Dames Point, FL
03:21:17 INFO: [No Data] Southbank Riverwalk, St Johns River, FL
03:21:17 INFO: [No Data] I-295 Bridge, St Johns River, FL
03:21:17 INFO: [No Data] Red Bay Point, St Johns River, FL
03:21:17 INFO: [No Data] Racy Point, St Johns River, FL
03:21:17 INFO: [No Data] Trident Pier, FL
03:21:17 INFO: [No Data] Lake Worth Pier, FL
03:21:17 INFO: [No Data] Virginia Key, FL
03:21:24 INFO: [Water  ] Vaca Key, FL
03:21:31 INFO: [Water  ] Key West, FL
03:21:38 INFO: [Water  ] Naples, FL
03:21:45 INFO: [Water  ] Fort Myers, FL
03:21:52 INFO: [Water  ] Port Manatee, FL
03:22:00 INFO: [Water  ] St Petersburg, FL
03:22:06 INFO: [Water  ] Old Port Tampa, FL
03:22:14 INFO: [Water  ] Cedar Key, FL
03:22:21 INFO: [Water  ] Apalachicola, FL
03:22:21 INFO: [No Data] Panama City, FL
03:22:24 INFO: [Water  ] Panama City Beach, FL
03:22:24 INFO: [No Data] Pensacola, FL
03:22:24 INFO: [No Data] Tolomato River station
03:22:31 INFO: [Water  ] Fred Howard Park
03:22:35 INFO: [Water  ] usf_tas_ngwlms
03:22:42 INFO: [Water  ] Big Carlos Pass
03:22:49 INFO: [Water  ] Shell Point
03:22:49 INFO: [No Data] St Lucie Inlet station
03:22:50 INFO: [Water  ] Naples Bay station
03:22:50 INFO: [No Data] Vero Beach station
03:22:50 INFO: [No Data] Ponce De Leon South station
03:22:50 INFO: [No Data] Melbourne station
03:22:52 INFO: [Water  ] Aripeka
03:22:52 INFO: [No Data] Bing's Landing station
03:22:52 INFO: [No Data] Binney Dock station
03:22:54 INFO: [Water  ] Gordon River Inlet station
03:22:54 INFO: Finished processing USF_FVCOM

03:22:54 INFO: ******* Saving to file 2014-07-07/2014-07-07-COAWST_4.nc *******
03:23:10 INFO: [Land   ] Duck, NC
03:23:15 INFO: [Water  ] Oregon Inlet Marina, NC
03:23:21 INFO: [Water  ] USCG Station Hatteras, NC
03:23:27 INFO: [Water  ] Beaufort, NC
03:23:35 INFO: [Land   ] Wilmington, NC
03:23:41 INFO: [Water  ] Wrightsville Beach, NC
03:23:48 INFO: [Water  ] Springmaid Pier, SC
03:23:56 INFO: [Land   ] Oyster Landing (N Inlet Estuary), SC
03:24:07 INFO: [Water  ] Charleston, SC
03:24:19 INFO: [Land   ] Fernandina Beach, FL
03:24:32 INFO: [Land   ] Mayport (Bar Pilots Dock), FL
03:24:46 INFO: [Land   ] Dames Point, FL
03:24:58 INFO: [Land   ] Southbank Riverwalk, St Johns River, FL
03:25:10 INFO: [Land   ] I-295 Bridge, St Johns River, FL
03:25:22 INFO: [Land   ] Red Bay Point, St Johns River, FL
03:25:28 INFO: [Land   ] Racy Point, St Johns River, FL
03:25:33 INFO: [Land   ] Trident Pier, FL
03:25:39 INFO: [Water  ] Lake Worth Pier, FL
03:25:52 INFO: [Water  ] Virginia Key, FL
03:26:06 INFO: [Land   ] Vaca Key, FL
03:26:13 INFO: [Water  ] Key West, FL
03:26:28 INFO: [Water  ] Naples, FL
03:26:41 INFO: [Land   ] Fort Myers, FL
03:26:48 INFO: [Land   ] Port Manatee, FL
03:27:01 INFO: [Water  ] St Petersburg, FL
03:27:07 INFO: [Water  ] Old Port Tampa, FL
03:27:12 INFO: [Water  ] Cedar Key, FL
03:27:18 INFO: [Water  ] Apalachicola, FL
03:27:24 INFO: [Water  ] Panama City, FL
03:27:31 INFO: [Water  ] Panama City Beach, FL
03:27:38 INFO: [Water  ] Pensacola, FL
03:27:43 INFO: [Land   ] Tolomato River station
03:27:49 INFO: [Land   ] Fred Howard Park
03:28:02 INFO: [Land   ] usf_tas_ngwlms
03:28:08 INFO: [Water  ] Big Carlos Pass
03:28:19 INFO: [Water  ] Shell Point
03:28:26 INFO: [Water  ] St Lucie Inlet station
03:28:40 INFO: [Land   ] Naples Bay station
03:28:46 INFO: [Water  ] Vero Beach station
03:28:53 INFO: [Water  ] Ponce De Leon South station
03:28:59 INFO: [Land   ] Melbourne station
03:29:15 INFO: [Water  ] Aripeka
03:29:23 INFO: [Land   ] Bing's Landing station
03:29:30 INFO: [Water  ] Binney Dock station
03:29:36 INFO: [Land   ] Gordon River Inlet station
03:32:01 INFO: Finished processing COAWST_4

03:32:01 INFO: **** Saving to file 2014-07-07/2014-07-07-ROMS_ESPRESSO.nc *****
03:32:08 INFO: [Land   ] Duck, NC
03:32:12 INFO: [Water  ] Oregon Inlet Marina, NC
03:32:17 INFO: [Land   ] USCG Station Hatteras, NC
03:32:21 INFO: [Water  ] Beaufort, NC
03:32:21 INFO: [No Data] Wilmington, NC
03:32:21 INFO: [No Data] Wrightsville Beach, NC
03:32:21 INFO: [No Data] Springmaid Pier, SC
03:32:21 INFO: [No Data] Oyster Landing (N Inlet Estuary), SC
03:32:21 INFO: [No Data] Charleston, SC
03:32:21 INFO: [No Data] Fernandina Beach, FL
03:32:21 INFO: [No Data] Mayport (Bar Pilots Dock), FL
03:32:21 INFO: [No Data] Dames Point, FL
03:32:21 INFO: [No Data] Southbank Riverwalk, St Johns River, FL
03:32:21 INFO: [No Data] I-295 Bridge, St Johns River, FL
03:32:21 INFO: [No Data] Red Bay Point, St Johns River, FL
03:32:21 INFO: [No Data] Racy Point, St Johns River, FL
03:32:21 INFO: [No Data] Trident Pier, FL
03:32:21 INFO: [No Data] Lake Worth Pier, FL
03:32:21 INFO: [No Data] Virginia Key, FL
03:32:21 INFO: [No Data] Vaca Key, FL
03:32:21 INFO: [No Data] Key West, FL
03:32:21 INFO: [No Data] Naples, FL
03:32:21 INFO: [No Data] Fort Myers, FL
03:32:21 INFO: [No Data] Port Manatee, FL
03:32:21 INFO: [No Data] St Petersburg, FL
03:32:21 INFO: [No Data] Old Port Tampa, FL
03:32:21 INFO: [No Data] Cedar Key, FL
03:32:21 INFO: [No Data] Apalachicola, FL
03:32:21 INFO: [No Data] Panama City, FL
03:32:21 INFO: [No Data] Panama City Beach, FL
03:32:21 INFO: [No Data] Pensacola, FL
03:32:21 INFO: [No Data] Tolomato River station
03:32:21 INFO: [No Data] Fred Howard Park
03:32:21 INFO: [No Data] usf_tas_ngwlms
03:32:21 INFO: [No Data] Big Carlos Pass
03:32:21 INFO: [No Data] Shell Point
03:32:21 INFO: [No Data] St Lucie Inlet station
03:32:21 INFO: [No Data] Naples Bay station
03:32:21 INFO: [No Data] Vero Beach station
03:32:21 INFO: [No Data] Ponce De Leon South station
03:32:21 INFO: [No Data] Melbourne station
03:32:21 INFO: [No Data] Aripeka
03:32:21 INFO: [No Data] Bing's Landing station
03:32:21 INFO: [No Data] Binney Dock station
03:32:21 INFO: [No Data] Gordon River Inlet station
03:32:28 INFO: Finished processing ROMS_ESPRESSO

03:32:29 INFO: 38.38 minutes
03:32:29 INFO: EOF
