08:40:00 INFO: ************Saving data inside directory 2014-07-07*************
08:40:00 INFO: *********************** Run information ************************
08:40:00 INFO: Run date: 2015-03-11 11:40:00
08:40:00 INFO: Download start: 2014-06-30 12:00:00
08:40:00 INFO: Download stop: 2014-07-07 12:00:00
08:40:00 INFO: Bounding box: -87.40, 24.25,-74.70, 36.70
08:40:00 INFO: *********************** Software version ***********************
08:40:00 INFO: Iris version: 1.7.2-DEV
08:40:00 INFO: owslib version: 0.8.13
08:40:00 INFO: pyoos version: 0.6.2
08:40:06 INFO: ********************* Catalog information **********************
08:40:06 INFO: URL: http://www.ngdc.noaa.gov/geoportal/csw
08:40:06 INFO: CSW version: 2.0.2
08:40:06 INFO: Number of datasets available: 8
08:40:06 INFO: ***************************** CSW ******************************
08:40:06 INFO: USF FVCOM - Nowcast Aggregation
08:40:06 INFO: ROMS/TOMS 3.0 - New Floria Shelf Application
08:40:06 INFO: ROMS/TOMS 3.0 - South-Atlantic Bight and Gulf of Mexico
08:40:06 INFO: COAWST Forecast System : USGS : US East Coast and Gulf of Mexico (Experimental)
08:40:06 INFO: ROMS ESPRESSO Real-Time Operational IS4DVAR Forecast System Version 2 (NEW) 2013-present FMRC History (Best)
08:40:06 INFO: Barotropic Tide Model for the Pacific Basin
08:40:06 INFO: HYbrid Coordinate Ocean Model (HYCOM): Global
08:40:06 INFO: ESTOFS Storm Surge Model - Atlantic - v1.0.0 - NOAA - NCEP - ADCIRC
08:40:06 INFO: ***************************** DAP ******************************
08:40:06 INFO: http://crow.marine.usf.edu:8080/thredds/dodsC/FVCOM-Nowcast-Agg.nc.html
08:40:06 INFO: http://crow.marine.usf.edu:8080/thredds/dodsC/WFS_ROMS_NF_model/USF_Ocean_Circulation_Group_West_Florida_Shelf_Daily_ROMS_Nowcast_Forecast_Model_Data_best.ncd.html
08:40:06 INFO: http://geoport-dev.whoi.edu/thredds/dodsC/estofs/atlantic.html
08:40:06 INFO: http://geoport.whoi.edu/thredds/dodsC/coawst_4/use/fmrc/coawst_4_use_best.ncd.html
08:40:06 INFO: http://omgsrv1.meas.ncsu.edu:8080/thredds/dodsC/fmrc/sabgom/SABGOM_Forecast_Model_Run_Collection_best.ncd.html
08:40:06 INFO: http://oos.soest.hawaii.edu/thredds/dodsC/hioos/tide_pac.html
08:40:06 INFO: http://oos.soest.hawaii.edu/thredds/dodsC/pacioos/hycom/global.html
08:40:06 INFO: http://tds.marine.rutgers.edu/thredds/dodsC/roms/espresso/2013_da/his_Best/ESPRESSO_Real-Time_v2_History_Best_Available_best.ncd.html
08:40:06 INFO: ***************************** SOS ******************************
08:40:08 WARNING: SABGOM_ARCHIVE not in the NGDC csw
08:40:08 WARNING: USEAST not in the NGDC csw
08:40:08 WARNING: USF_SWAN not in the NGDC csw
08:40:16 WARNING: Cannot get cube for: http://129.252.139.124/thredds/dodsC/fit.sispnj.met.nc
Cannot find ['sea_surface_height', 'sea_surface_elevation', 'sea_surface_height_above_geoid', 'sea_surface_height_above_sea_level', 'water_surface_height_above_reference_datum', 'sea_surface_height_above_reference_ellipsoid'] in http://129.252.139.124/thredds/dodsC/fit.sispnj.met.nc.
08:40:27 WARNING: Cannot get cube for: http://129.252.139.124/thredds/dodsC/usf.nfb.ngwlms.nc
Cannot find ['sea_surface_height', 'sea_surface_elevation', 'sea_surface_height_above_geoid', 'sea_surface_height_above_sea_level', 'water_surface_height_above_reference_datum', 'sea_surface_height_above_reference_ellipsoid'] in http://129.252.139.124/thredds/dodsC/usf.nfb.ngwlms.nc.
08:41:00 WARNING: Cannot get cube for: http://129.252.139.124/thredds/dodsC/usf.c21.weatherpak.nc
Cannot find ['sea_surface_height', 'sea_surface_elevation', 'sea_surface_height_above_geoid', 'sea_surface_height_above_sea_level', 'water_surface_height_above_reference_datum', 'sea_surface_height_above_reference_ellipsoid'] in http://129.252.139.124/thredds/dodsC/usf.c21.weatherpak.nc.
08:41:40 WARNING: Cannot get cube for: http://129.252.139.124/thredds/dodsC/usf.c10.mcat.nc
Cannot find ['sea_surface_height', 'sea_surface_elevation', 'sea_surface_height_above_geoid', 'sea_surface_height_above_sea_level', 'water_surface_height_above_reference_datum', 'sea_surface_height_above_reference_ellipsoid'] in http://129.252.139.124/thredds/dodsC/usf.c10.mcat.nc.
08:41:55 WARNING: Cannot get cube for: http://129.252.139.124/thredds/dodsC/c10_salinity_water_temp.nc
Cannot find ['sea_surface_height', 'sea_surface_elevation', 'sea_surface_height_above_geoid', 'sea_surface_height_above_sea_level', 'water_surface_height_above_reference_datum', 'sea_surface_height_above_reference_ellipsoid'] in http://129.252.139.124/thredds/dodsC/c10_salinity_water_temp.nc.
08:42:08 WARNING: Cannot get cube for: http://129.252.139.124/thredds/dodsC/QC_C10_Temp_full.nc
Cannot find ['sea_surface_height', 'sea_surface_elevation', 'sea_surface_height_above_geoid', 'sea_surface_height_above_sea_level', 'water_surface_height_above_reference_datum', 'sea_surface_height_above_reference_ellipsoid'] in http://129.252.139.124/thredds/dodsC/QC_C10_Temp_full.nc.
08:42:19 WARNING: Cannot get cube for: http://129.252.139.124/thredds/dodsC/QC_C10_Sal_full.nc
Cannot find ['sea_surface_height', 'sea_surface_elevation', 'sea_surface_height_above_geoid', 'sea_surface_height_above_sea_level', 'water_surface_height_above_reference_datum', 'sea_surface_height_above_reference_ellipsoid'] in http://129.252.139.124/thredds/dodsC/QC_C10_Sal_full.nc.
08:42:24 WARNING: Cannot get cube for: http://129.252.139.124/thredds/dodsC/usf.c12.mcat.nc
Cannot find ['sea_surface_height', 'sea_surface_elevation', 'sea_surface_height_above_geoid', 'sea_surface_height_above_sea_level', 'water_surface_height_above_reference_datum', 'sea_surface_height_above_reference_ellipsoid'] in http://129.252.139.124/thredds/dodsC/usf.c12.mcat.nc.
08:42:29 WARNING: Cannot get cube for: http://129.252.139.124/thredds/dodsC/usf.c13.mcat.nc
Cannot find ['sea_surface_height', 'sea_surface_elevation', 'sea_surface_height_above_geoid', 'sea_surface_height_above_sea_level', 'water_surface_height_above_reference_datum', 'sea_surface_height_above_reference_ellipsoid'] in http://129.252.139.124/thredds/dodsC/usf.c13.mcat.nc.
08:42:35 WARNING: Cannot get cube for: http://129.252.139.124/thredds/dodsC/usf.c10.mcat_2011.nc
Cannot find ['sea_surface_height', 'sea_surface_elevation', 'sea_surface_height_above_geoid', 'sea_surface_height_above_sea_level', 'water_surface_height_above_reference_datum', 'sea_surface_height_above_reference_ellipsoid'] in http://129.252.139.124/thredds/dodsC/usf.c10.mcat_2011.nc.
08:42:40 WARNING: Cannot get cube for: http://129.252.139.124/thredds/dodsC/usf.c12.mcat_2011.nc
Cannot find ['sea_surface_height', 'sea_surface_elevation', 'sea_surface_height_above_geoid', 'sea_surface_height_above_sea_level', 'water_surface_height_above_reference_datum', 'sea_surface_height_above_reference_ellipsoid'] in http://129.252.139.124/thredds/dodsC/usf.c12.mcat_2011.nc.
08:42:45 WARNING: Cannot get cube for: http://129.252.139.124/thredds/dodsC/usf.c13.mcat_2011.nc
Cannot find ['sea_surface_height', 'sea_surface_elevation', 'sea_surface_height_above_geoid', 'sea_surface_height_above_sea_level', 'water_surface_height_above_reference_datum', 'sea_surface_height_above_reference_ellipsoid'] in http://129.252.139.124/thredds/dodsC/usf.c13.mcat_2011.nc.
08:42:51 WARNING: Cannot get cube for: http://129.252.139.124/thredds/dodsC/carocoops.sun2.buoy.nc
Cannot find ['sea_surface_height', 'sea_surface_elevation', 'sea_surface_height_above_geoid', 'sea_surface_height_above_sea_level', 'water_surface_height_above_reference_datum', 'sea_surface_height_above_reference_ellipsoid'] in http://129.252.139.124/thredds/dodsC/carocoops.sun2.buoy.nc.
08:42:59 WARNING: Cannot get cube for: http://129.252.139.124/thredds/dodsC/carocoops.frp2.buoy.nc
Cannot find ['sea_surface_height', 'sea_surface_elevation', 'sea_surface_height_above_geoid', 'sea_surface_height_above_sea_level', 'water_surface_height_above_reference_datum', 'sea_surface_height_above_reference_ellipsoid'] in http://129.252.139.124/thredds/dodsC/carocoops.frp2.buoy.nc.
08:43:07 WARNING: Cannot get cube for: http://129.252.139.124/thredds/dodsC/carocoops.cap2.buoy.nc
Cannot find ['sea_surface_height', 'sea_surface_elevation', 'sea_surface_height_above_geoid', 'sea_surface_height_above_sea_level', 'water_surface_height_above_reference_datum', 'sea_surface_height_above_reference_ellipsoid'] in http://129.252.139.124/thredds/dodsC/carocoops.cap2.buoy.nc.
08:43:22 WARNING: Cannot get cube for: http://129.252.139.124/thredds/dodsC/cormp.ilm3.buoy.nc
Cannot find ['sea_surface_height', 'sea_surface_elevation', 'sea_surface_height_above_geoid', 'sea_surface_height_above_sea_level', 'water_surface_height_above_reference_datum', 'sea_surface_height_above_reference_ellipsoid'] in http://129.252.139.124/thredds/dodsC/cormp.ilm3.buoy.nc.
08:43:45 WARNING: Cannot get cube for: http://129.252.139.124/thredds/dodsC/cormp.ilm2.buoy.nc
Cannot find ['sea_surface_height', 'sea_surface_elevation', 'sea_surface_height_above_geoid', 'sea_surface_height_above_sea_level', 'water_surface_height_above_reference_datum', 'sea_surface_height_above_reference_ellipsoid'] in http://129.252.139.124/thredds/dodsC/cormp.ilm2.buoy.nc.
08:43:47 WARNING: Cannot get cube for: http://129.252.139.124/thredds/dodsC/cormp.ilm1.buoy.nc
Cannot find ['sea_surface_height', 'sea_surface_elevation', 'sea_surface_height_above_geoid', 'sea_surface_height_above_sea_level', 'water_surface_height_above_reference_datum', 'sea_surface_height_above_reference_ellipsoid'] in http://129.252.139.124/thredds/dodsC/cormp.ilm1.buoy.nc.
08:43:59 WARNING: Cannot get cube for: http://129.252.139.124/thredds/dodsC/cormp.lej3.buoy.nc
Cannot find ['sea_surface_height', 'sea_surface_elevation', 'sea_surface_height_above_geoid', 'sea_surface_height_above_sea_level', 'water_surface_height_above_reference_datum', 'sea_surface_height_above_reference_ellipsoid'] in http://129.252.139.124/thredds/dodsC/cormp.lej3.buoy.nc.
08:44:06 WARNING: Cannot get cube for: http://129.252.139.124/thredds/dodsC/sccf.gulfofmexico.wq.nc
Cannot find ['sea_surface_height', 'sea_surface_elevation', 'sea_surface_height_above_geoid', 'sea_surface_height_above_sea_level', 'water_surface_height_above_reference_datum', 'sea_surface_height_above_reference_ellipsoid'] in http://129.252.139.124/thredds/dodsC/sccf.gulfofmexico.wq.nc.
08:44:11 WARNING: Cannot get cube for: http://129.252.139.124/thredds/dodsC/sccf.shellpoint.wq.nc
Cannot find ['sea_surface_height', 'sea_surface_elevation', 'sea_surface_height_above_geoid', 'sea_surface_height_above_sea_level', 'water_surface_height_above_reference_datum', 'sea_surface_height_above_reference_ellipsoid'] in http://129.252.139.124/thredds/dodsC/sccf.shellpoint.wq.nc.
08:44:16 WARNING: Cannot get cube for: http://129.252.139.124/thredds/dodsC/sccf.redfishpass.wq.nc
Cannot find ['sea_surface_height', 'sea_surface_elevation', 'sea_surface_height_above_geoid', 'sea_surface_height_above_sea_level', 'water_surface_height_above_reference_datum', 'sea_surface_height_above_reference_ellipsoid'] in http://129.252.139.124/thredds/dodsC/sccf.redfishpass.wq.nc.
08:44:21 WARNING: Cannot get cube for: http://129.252.139.124/thredds/dodsC/sccf.tarponbay.wq.nc
Cannot find ['sea_surface_height', 'sea_surface_elevation', 'sea_surface_height_above_geoid', 'sea_surface_height_above_sea_level', 'water_surface_height_above_reference_datum', 'sea_surface_height_above_reference_ellipsoid'] in http://129.252.139.124/thredds/dodsC/sccf.tarponbay.wq.nc.
08:44:26 WARNING: Cannot get cube for: http://129.252.139.124/thredds/dodsC/sccf.fortmyers.wq.nc
Cannot find ['sea_surface_height', 'sea_surface_elevation', 'sea_surface_height_above_geoid', 'sea_surface_height_above_sea_level', 'water_surface_height_above_reference_datum', 'sea_surface_height_above_reference_ellipsoid'] in http://129.252.139.124/thredds/dodsC/sccf.fortmyers.wq.nc.
08:45:05 WARNING: Cannot get cube for: http://129.252.139.124/thredds/dodsC/fldep.redbaypoint..nc
istart must be different from istop! Got istart 43 and  istop 43
08:46:28 WARNING: Cannot get cube for: http://129.252.139.124/thredds/dodsC/lbhmc.2ndave.pier.nc
Cannot find ['sea_surface_height', 'sea_surface_elevation', 'sea_surface_height_above_geoid', 'sea_surface_height_above_sea_level', 'water_surface_height_above_reference_datum', 'sea_surface_height_above_reference_ellipsoid'] in http://129.252.139.124/thredds/dodsC/lbhmc.2ndave.pier.nc.
08:46:37 WARNING: Cannot get cube for: http://129.252.139.124/thredds/dodsC/lbhmc.cherrygrove.pier.nc
Cannot find ['sea_surface_height', 'sea_surface_elevation', 'sea_surface_height_above_geoid', 'sea_surface_height_above_sea_level', 'water_surface_height_above_reference_datum', 'sea_surface_height_above_reference_ellipsoid'] in http://129.252.139.124/thredds/dodsC/lbhmc.cherrygrove.pier.nc.
08:46:44 WARNING: Cannot get cube for: http://129.252.139.124/thredds/dodsC/lbhmc.apachepier.pier.nc
Cannot find ['sea_surface_height', 'sea_surface_elevation', 'sea_surface_height_above_geoid', 'sea_surface_height_above_sea_level', 'water_surface_height_above_reference_datum', 'sea_surface_height_above_reference_ellipsoid'] in http://129.252.139.124/thredds/dodsC/lbhmc.apachepier.pier.nc.
08:46:49 WARNING: Cannot get cube for: http://129.252.139.124/thredds/dodsC/enp.wiwf1.met.nc
Cannot find ['sea_surface_height', 'sea_surface_elevation', 'sea_surface_height_above_geoid', 'sea_surface_height_above_sea_level', 'water_surface_height_above_reference_datum', 'sea_surface_height_above_reference_ellipsoid'] in http://129.252.139.124/thredds/dodsC/enp.wiwf1.met.nc.
08:46:54 WARNING: Cannot get cube for: http://129.252.139.124/thredds/dodsC/enp.lbrf1.met.nc
Cannot find ['sea_surface_height', 'sea_surface_elevation', 'sea_surface_height_above_geoid', 'sea_surface_height_above_sea_level', 'water_surface_height_above_reference_datum', 'sea_surface_height_above_reference_ellipsoid'] in http://129.252.139.124/thredds/dodsC/enp.lbrf1.met.nc.
08:46:58 WARNING: Cannot get cube for: http://129.252.139.124/thredds/dodsC/enp.bobf1.met.nc
Cannot find ['sea_surface_height', 'sea_surface_elevation', 'sea_surface_height_above_geoid', 'sea_surface_height_above_sea_level', 'water_surface_height_above_reference_datum', 'sea_surface_height_above_reference_ellipsoid'] in http://129.252.139.124/thredds/dodsC/enp.bobf1.met.nc.
08:47:05 WARNING: Cannot get cube for: http://129.252.139.124/thredds/dodsC/enp.trrf1.met.nc
Cannot find ['sea_surface_height', 'sea_surface_elevation', 'sea_surface_height_above_geoid', 'sea_surface_height_above_sea_level', 'water_surface_height_above_reference_datum', 'sea_surface_height_above_reference_ellipsoid'] in http://129.252.139.124/thredds/dodsC/enp.trrf1.met.nc.
08:47:09 WARNING: Cannot get cube for: http://129.252.139.124/thredds/dodsC/enp.wwef1.met.nc
Cannot find ['sea_surface_height', 'sea_surface_elevation', 'sea_surface_height_above_geoid', 'sea_surface_height_above_sea_level', 'water_surface_height_above_reference_datum', 'sea_surface_height_above_reference_ellipsoid'] in http://129.252.139.124/thredds/dodsC/enp.wwef1.met.nc.
08:47:15 WARNING: Cannot get cube for: http://129.252.139.124/thredds/dodsC/enp.lrif1.met.nc
Cannot find ['sea_surface_height', 'sea_surface_elevation', 'sea_surface_height_above_geoid', 'sea_surface_height_above_sea_level', 'water_surface_height_above_reference_datum', 'sea_surface_height_above_reference_ellipsoid'] in http://129.252.139.124/thredds/dodsC/enp.lrif1.met.nc.
08:47:21 WARNING: Cannot get cube for: http://129.252.139.124/thredds/dodsC/enp.bwsf1.met.nc
Cannot find ['sea_surface_height', 'sea_surface_elevation', 'sea_surface_height_above_geoid', 'sea_surface_height_above_sea_level', 'water_surface_height_above_reference_datum', 'sea_surface_height_above_reference_ellipsoid'] in http://129.252.139.124/thredds/dodsC/enp.bwsf1.met.nc.
08:47:26 WARNING: Cannot get cube for: http://129.252.139.124/thredds/dodsC/enp.pkyf1.met.nc
Cannot find ['sea_surface_height', 'sea_surface_elevation', 'sea_surface_height_above_geoid', 'sea_surface_height_above_sea_level', 'water_surface_height_above_reference_datum', 'sea_surface_height_above_reference_ellipsoid'] in http://129.252.139.124/thredds/dodsC/enp.pkyf1.met.nc.
08:47:33 WARNING: Cannot get cube for: http://129.252.139.124/thredds/dodsC/enp.lmdf1.met.nc
Cannot find ['sea_surface_height', 'sea_surface_elevation', 'sea_surface_height_above_geoid', 'sea_surface_height_above_sea_level', 'water_surface_height_above_reference_datum', 'sea_surface_height_above_reference_ellipsoid'] in http://129.252.139.124/thredds/dodsC/enp.lmdf1.met.nc.
08:47:38 WARNING: Cannot get cube for: http://129.252.139.124/thredds/dodsC/enp.cnbf1.met.nc
Cannot find ['sea_surface_height', 'sea_surface_elevation', 'sea_surface_height_above_geoid', 'sea_surface_height_above_sea_level', 'water_surface_height_above_reference_datum', 'sea_surface_height_above_reference_ellipsoid'] in http://129.252.139.124/thredds/dodsC/enp.cnbf1.met.nc.
08:47:43 WARNING: Cannot get cube for: http://129.252.139.124/thredds/dodsC/enp.hcef1.met.nc
Cannot find ['sea_surface_height', 'sea_surface_elevation', 'sea_surface_height_above_geoid', 'sea_surface_height_above_sea_level', 'water_surface_height_above_reference_datum', 'sea_surface_height_above_reference_ellipsoid'] in http://129.252.139.124/thredds/dodsC/enp.hcef1.met.nc.
08:47:47 WARNING: Cannot get cube for: http://129.252.139.124/thredds/dodsC/enp.jkyf1.met.nc
Cannot find ['sea_surface_height', 'sea_surface_elevation', 'sea_surface_height_above_geoid', 'sea_surface_height_above_sea_level', 'water_surface_height_above_reference_datum', 'sea_surface_height_above_reference_ellipsoid'] in http://129.252.139.124/thredds/dodsC/enp.jkyf1.met.nc.
08:47:53 WARNING: Cannot get cube for: http://129.252.139.124/thredds/dodsC/enp.wrbf1.met.nc
Cannot find ['sea_surface_height', 'sea_surface_elevation', 'sea_surface_height_above_geoid', 'sea_surface_height_above_sea_level', 'water_surface_height_above_reference_datum', 'sea_surface_height_above_reference_ellipsoid'] in http://129.252.139.124/thredds/dodsC/enp.wrbf1.met.nc.
08:48:00 WARNING: Cannot get cube for: http://129.252.139.124/thredds/dodsC/enp.gbif1.met.nc
Cannot find ['sea_surface_height', 'sea_surface_elevation', 'sea_surface_height_above_geoid', 'sea_surface_height_above_sea_level', 'water_surface_height_above_reference_datum', 'sea_surface_height_above_reference_ellipsoid'] in http://129.252.139.124/thredds/dodsC/enp.gbif1.met.nc.
08:48:06 WARNING: Cannot get cube for: http://129.252.139.124/thredds/dodsC/enp.ppta1.met.nc
Cannot find ['sea_surface_height', 'sea_surface_elevation', 'sea_surface_height_above_geoid', 'sea_surface_height_above_sea_level', 'water_surface_height_above_reference_datum', 'sea_surface_height_above_reference_ellipsoid'] in http://129.252.139.124/thredds/dodsC/enp.ppta1.met.nc.
08:48:10 WARNING: Cannot get cube for: http://129.252.139.124/thredds/dodsC/enp.bdvf1.met.nc
Cannot find ['sea_surface_height', 'sea_surface_elevation', 'sea_surface_height_above_geoid', 'sea_surface_height_above_sea_level', 'water_surface_height_above_reference_datum', 'sea_surface_height_above_reference_ellipsoid'] in http://129.252.139.124/thredds/dodsC/enp.bdvf1.met.nc.
08:48:15 WARNING: Cannot get cube for: http://129.252.139.124/thredds/dodsC/enp.lrkf1.met.nc
Cannot find ['sea_surface_height', 'sea_surface_elevation', 'sea_surface_height_above_geoid', 'sea_surface_height_above_sea_level', 'water_surface_height_above_reference_datum', 'sea_surface_height_above_reference_ellipsoid'] in http://129.252.139.124/thredds/dodsC/enp.lrkf1.met.nc.
08:48:19 WARNING: Cannot get cube for: http://129.252.139.124/thredds/dodsC/enp.bnkf1.met.nc
Cannot find ['sea_surface_height', 'sea_surface_elevation', 'sea_surface_height_above_geoid', 'sea_surface_height_above_sea_level', 'water_surface_height_above_reference_datum', 'sea_surface_height_above_reference_ellipsoid'] in http://129.252.139.124/thredds/dodsC/enp.bnkf1.met.nc.
08:48:24 WARNING: Cannot get cube for: http://129.252.139.124/thredds/dodsC/enp.gbtf1.met.nc
Cannot find ['sea_surface_height', 'sea_surface_elevation', 'sea_surface_height_above_geoid', 'sea_surface_height_above_sea_level', 'water_surface_height_above_reference_datum', 'sea_surface_height_above_reference_ellipsoid'] in http://129.252.139.124/thredds/dodsC/enp.gbtf1.met.nc.
08:48:28 WARNING: Cannot get cube for: http://129.252.139.124/thredds/dodsC/enp.tcvf1.met.nc
Cannot find ['sea_surface_height', 'sea_surface_elevation', 'sea_surface_height_above_geoid', 'sea_surface_height_above_sea_level', 'water_surface_height_above_reference_datum', 'sea_surface_height_above_reference_ellipsoid'] in http://129.252.139.124/thredds/dodsC/enp.tcvf1.met.nc.
08:48:33 WARNING: Cannot get cube for: http://129.252.139.124/thredds/dodsC/enp.canf1.met.nc
Cannot find ['sea_surface_height', 'sea_surface_elevation', 'sea_surface_height_above_geoid', 'sea_surface_height_above_sea_level', 'water_surface_height_above_reference_datum', 'sea_surface_height_above_reference_ellipsoid'] in http://129.252.139.124/thredds/dodsC/enp.canf1.met.nc.
08:48:37 WARNING: Cannot get cube for: http://129.252.139.124/thredds/dodsC/enp.lbsf1.met.nc
Cannot find ['sea_surface_height', 'sea_surface_elevation', 'sea_surface_height_above_geoid', 'sea_surface_height_above_sea_level', 'water_surface_height_above_reference_datum', 'sea_surface_height_above_reference_ellipsoid'] in http://129.252.139.124/thredds/dodsC/enp.lbsf1.met.nc.
08:48:45 WARNING: Cannot get cube for: http://129.252.139.124/thredds/dodsC/enp.mukf1.met.nc
Cannot find ['sea_surface_height', 'sea_surface_elevation', 'sea_surface_height_above_geoid', 'sea_surface_height_above_sea_level', 'water_surface_height_above_reference_datum', 'sea_surface_height_above_reference_ellipsoid'] in http://129.252.139.124/thredds/dodsC/enp.mukf1.met.nc.
08:48:49 WARNING: Cannot get cube for: http://129.252.139.124/thredds/dodsC/enp.dkkf1.met.nc
Cannot find ['sea_surface_height', 'sea_surface_elevation', 'sea_surface_height_above_geoid', 'sea_surface_height_above_sea_level', 'water_surface_height_above_reference_datum', 'sea_surface_height_above_reference_ellipsoid'] in http://129.252.139.124/thredds/dodsC/enp.dkkf1.met.nc.
08:48:54 WARNING: Cannot get cube for: http://129.252.139.124/thredds/dodsC/enp.cwaf1.met.nc
Cannot find ['sea_surface_height', 'sea_surface_elevation', 'sea_surface_height_above_geoid', 'sea_surface_height_above_sea_level', 'water_surface_height_above_reference_datum', 'sea_surface_height_above_reference_ellipsoid'] in http://129.252.139.124/thredds/dodsC/enp.cwaf1.met.nc.
08:49:01 WARNING: Cannot get cube for: http://129.252.139.124/thredds/dodsC/fau.lobo.1.nc
Cannot find ['sea_surface_height', 'sea_surface_elevation', 'sea_surface_height_above_geoid', 'sea_surface_height_above_sea_level', 'water_surface_height_above_reference_datum', 'sea_surface_height_above_reference_ellipsoid'] in http://129.252.139.124/thredds/dodsC/fau.lobo.1.nc.
08:49:14 INFO: ********************* Collector offerings **********************
08:49:14 INFO: NOAA.NOS.CO-OPS SOS: 1035 offerings
08:49:29 INFO: SOS URL request: http://opendap.co-ops.nos.noaa.gov/ioos-dif-sos/SOS?eventTime=2014-06-30T12%3A00%3A00Z&service=SOS&offering=urn%3Aioos%3Anetwork%3ANOAA.NOS.CO-OPS%3AWaterLevelActive&request=GetObservation&version=1.0.0&responseFormat=text%2Fcsv&featureOfInterest=BBOX%3A-87.4%2C24.25%2C-74.7%2C36.7&observedProperty=water_surface_height_above_reference_datum
08:51:10 INFO: ************************* Observations *************************
08:51:10 INFO: **** Downloading to file 2014-07-07/2014-07-07-OBS_DATA.nc *****
08:51:31 WARNING: [8654467] USCG Station Hatteras, NC:
'Wrong Datum for this station: The correct Datum values are: MHHW, MHW, MTL, MSL, MLW, MLLW, STND'
08:51:38 WARNING: [8656483] Beaufort, NC:
'Wrong Datum for this station: The correct Datum values are: MHHW, MHW, MTL, MSL, MLW, MLLW, STND'
08:51:41 WARNING: [8658120] Wilmington, NC:
'Wrong Datum for this station: The correct Datum values are: MHHW, MHW, MTL, MSL, MLW, MLLW, STND'
08:54:04 WARNING: [8726520] St Petersburg, FL:
'Wrong Datum for this station: The correct Datum values are: MHHW, MHW, MTL, MSL, MLW, MLLW, STND'
08:54:08 WARNING: [8726607] Old Port Tampa, FL:
'Wrong Datum for this station: The correct Datum values are: MHHW, MHW, MTL, MSL, MLW, MLLW, STND'
08:54:21 WARNING: [8729210] Panama City Beach, FL:
'Wrong Datum for this station: The correct Datum values are: MHHW, MHW, MTL, MSL, MLW, MLLW, STND'
08:54:28 INFO: ********************* SECOORA Observations *********************
08:54:28 INFO:  Downloading to file 2014-07-07/2014-07-07-SECOORA_OBS_DATA.nc *
08:54:28 INFO: **************************** Models ****************************
08:54:28 INFO: 
[Reading url 1/11]: http://crow.marine.usf.edu:8080/thredds/dodsC/FVCOM-Nowcast-Agg.nc
08:54:47 INFO: 
[Reading url 2/11]: http://crow.marine.usf.edu:8080/thredds/dodsC/WFS_ROMS_NF_model/USF_Ocean_Circulation_Group_West_Florida_Shelf_Daily_ROMS_Nowcast_Forecast_Model_Data_best.ncd
08:54:56 INFO: 
[Reading url 3/11]: http://geoport-dev.whoi.edu/thredds/dodsC/estofs/atlantic
08:56:05 INFO: 
[Reading url 4/11]: http://geoport.whoi.edu/thredds/dodsC/coawst_4/use/fmrc/coawst_4_use_best.ncd
08:57:44 INFO: 
[Reading url 5/11]: http://omgarch1.meas.ncsu.edu:8080/thredds/dodsC/fmrc/sabgom/SABGOM_Forecast_Model_Run_Collection_best.ncd
08:58:52 INFO: 
[Reading url 6/11]: http://oos.soest.hawaii.edu/thredds/dodsC/hioos/tide_pac
08:59:07 INFO: 
[Reading url 7/11]: http://oos.soest.hawaii.edu/thredds/dodsC/pacioos/hycom/global
08:59:12 INFO: 
[Reading url 8/11]: http://tds.marine.rutgers.edu/thredds/dodsC/roms/espresso/2013_da/his_Best/ESPRESSO_Real-Time_v2_History_Best_Available_best.ncd
08:59:28 INFO: 
[Reading url 9/11]: http://omgarch1.meas.ncsu.edu:8080/thredds/dodsC/fmrc/sabgom/SABGOM_Forecast_Model_Run_Collection_best.ncd
09:00:34 INFO: 
[Reading url 10/11]: http://omgsrv1.meas.ncsu.edu:8080/thredds/dodsC/fmrc/us_east/US_East_Forecast_Model_Run_Collection_best.ncd
09:01:59 WARNING: Cannot get cube for: http://omgsrv1.meas.ncsu.edu:8080/thredds/dodsC/fmrc/us_east/US_East_Forecast_Model_Run_Collection_best.ncd
istart must be different from istop! Got istart 0 and  istop 0
09:01:59 INFO: 
[Reading url 11/11]: http://crow.marine.usf.edu:8080/thredds/dodsC/WFS_SWAN_NF_model/USF_Ocean_Circulation_Group_West_Florida_Shelf_Daily_SWAN_Nowcast_Forecast_Wave_Model_Data_best.ncd
09:02:00 WARNING: Cannot get cube for: http://crow.marine.usf.edu:8080/thredds/dodsC/WFS_SWAN_NF_model/USF_Ocean_Circulation_Group_West_Florida_Shelf_Daily_SWAN_Nowcast_Forecast_Wave_Model_Data_best.ncd
Cannot find ['sea_surface_height', 'sea_surface_elevation', 'sea_surface_height_above_geoid', 'sea_surface_height_above_sea_level', 'water_surface_height_above_reference_datum', 'sea_surface_height_above_reference_ellipsoid'] in http://crow.marine.usf.edu:8080/thredds/dodsC/WFS_SWAN_NF_model/USF_Ocean_Circulation_Group_West_Florida_Shelf_Daily_SWAN_Nowcast_Forecast_Wave_Model_Data_best.ncd.
09:02:00 INFO: **** Saving to file 2014-07-07/2014-07-07-SABGOM_ARCHIVE.nc ****
09:02:07 INFO: [Water  ] Duck, NC
09:02:11 INFO: [Land   ] Oregon Inlet Marina, NC
09:02:17 INFO: [Water  ] USCG Station Hatteras, NC
09:02:21 INFO: [Land   ] Beaufort, NC
09:02:25 INFO: [Land   ] Wilmington, NC
09:02:29 INFO: [Water  ] Wrightsville Beach, NC
09:02:32 INFO: [Water  ] Springmaid Pier, SC
09:02:37 INFO: [Land   ] Oyster Landing (N Inlet Estuary), SC
09:02:43 INFO: [Land   ] Charleston, SC
09:02:47 INFO: [Land   ] Fernandina Beach, FL
09:02:51 INFO: [Land   ] Mayport (Bar Pilots Dock), FL
09:02:55 INFO: [Land   ] Dames Point, FL
09:03:00 INFO: [Land   ] Southbank Riverwalk, St Johns River, FL
09:03:06 INFO: [Land   ] I-295 Bridge, St Johns River, FL
09:03:11 INFO: [Land   ] Red Bay Point, St Johns River, FL
09:03:18 INFO: [Land   ] Trident Pier, FL
09:03:30 INFO: [Land   ] Lake Worth Pier, FL
09:03:41 INFO: [Land   ] Vaca Key, FL
09:03:46 INFO: [Water  ] Key West, FL
09:03:50 INFO: [Land   ] Naples, FL
09:03:55 INFO: [Land   ] Fort Myers, FL
09:04:01 INFO: [Land   ] Port Manatee, FL
09:04:11 INFO: [Land   ] St Petersburg, FL
09:04:20 INFO: [Water  ] Old Port Tampa, FL
09:04:26 INFO: [Land   ] Apalachicola, FL
09:04:30 INFO: [Land   ] Panama City, FL
09:04:39 INFO: [Water  ] Panama City Beach, FL
09:04:47 INFO: [Land   ] Pensacola, FL
09:04:51 INFO: [Land   ] Tolomato River station
09:05:02 INFO: [Land   ] Fred Howard Park
09:05:07 INFO: [Land   ] 
09:05:11 INFO: [Land   ] Big Carlos Pass
09:05:16 INFO: [Land   ] Shell Point
09:05:25 INFO: [Water  ] St Lucie Inlet station
09:05:31 INFO: [Land   ] Naples Bay station
09:05:36 INFO: [Land   ] Vero Beach station
09:05:40 INFO: [Land   ] Ponce De Leon South station
09:05:47 INFO: [Land   ] Melbourne station
09:05:51 INFO: [Land   ] Aripeka
09:05:57 INFO: [Land   ] Bing&#39;s Landing station
09:06:01 INFO: [Land   ] Binney Dock station
09:06:07 INFO: [Land   ] Gordon River Inlet station
09:06:52 INFO: Finished processing [SABGOM_ARCHIVE]: http://crow.marine.usf.edu:8080/thredds/dodsC/WFS_SWAN_NF_model/USF_Ocean_Circulation_Group_West_Florida_Shelf_Daily_SWAN_Nowcast_Forecast_Wave_Model_Data_best.ncd
09:06:52 INFO: ******** Saving to file 2014-07-07/2014-07-07-ESTOFS.nc ********
09:06:58 INFO: [Water  ] Duck, NC
09:07:01 INFO: [Water  ] Oregon Inlet Marina, NC
09:07:09 INFO: [Water  ] USCG Station Hatteras, NC
09:07:11 INFO: [Water  ] Beaufort, NC
09:07:11 INFO: [No Data] Wilmington, NC
09:07:25 INFO: [Water  ] Wrightsville Beach, NC
09:07:40 INFO: [Water  ] Springmaid Pier, SC
09:07:45 INFO: [Water  ] Oyster Landing (N Inlet Estuary), SC
09:07:45 INFO: [No Data] Charleston, SC
09:07:47 INFO: [Water  ] Fernandina Beach, FL
09:07:52 INFO: [Water  ] Mayport (Bar Pilots Dock), FL
09:07:52 INFO: [No Data] Dames Point, FL
09:07:52 INFO: [No Data] Southbank Riverwalk, St Johns River, FL
09:07:52 INFO: [No Data] I-295 Bridge, St Johns River, FL
09:07:52 INFO: [No Data] Red Bay Point, St Johns River, FL
09:07:58 INFO: [Water  ] Trident Pier, FL
09:08:06 INFO: [Water  ] Lake Worth Pier, FL
09:08:20 INFO: [Water  ] Vaca Key, FL
09:08:27 INFO: [Water  ] Key West, FL
09:08:41 INFO: [Water  ] Naples, FL
09:08:41 INFO: [No Data] Fort Myers, FL
09:08:54 INFO: [Water  ] Port Manatee, FL
09:09:08 INFO: [Water  ] St Petersburg, FL
09:09:16 INFO: [Water  ] Old Port Tampa, FL
09:09:28 INFO: [Water  ] Apalachicola, FL
09:09:28 INFO: [No Data] Panama City, FL
09:09:35 INFO: [Water  ] Panama City Beach, FL
09:09:35 INFO: [No Data] Pensacola, FL
09:09:40 INFO: [Water  ] Tolomato River station
09:09:54 INFO: [Water  ] Fred Howard Park
09:09:55 INFO: [Water  ] 
09:10:02 INFO: [Water  ] Big Carlos Pass
09:10:15 INFO: [Water  ] Shell Point
09:10:21 INFO: [Water  ] St Lucie Inlet station
09:10:23 INFO: [Water  ] Naples Bay station
09:10:28 INFO: [Water  ] Vero Beach station
09:10:35 INFO: [Water  ] Ponce De Leon South station
09:10:38 INFO: [Water  ] Melbourne station
09:10:48 INFO: [Water  ] Aripeka
09:10:53 INFO: [Water  ] Bing&#39;s Landing station
09:11:00 INFO: [Water  ] Binney Dock station
09:11:08 INFO: [Water  ] Gordon River Inlet station
09:11:09 INFO: Finished processing [ESTOFS]: http://crow.marine.usf.edu:8080/thredds/dodsC/WFS_SWAN_NF_model/USF_Ocean_Circulation_Group_West_Florida_Shelf_Daily_SWAN_Nowcast_Forecast_Wave_Model_Data_best.ncd
09:11:09 INFO: ******** Saving to file 2014-07-07/2014-07-07-HYCOM.nc *********
09:11:12 INFO: [Land   ] Duck, NC
09:11:14 INFO: [Water  ] Oregon Inlet Marina, NC
09:11:18 INFO: [Land   ] USCG Station Hatteras, NC
09:11:25 INFO: [Land   ] Beaufort, NC
09:11:32 INFO: [Land   ] Wilmington, NC
09:11:35 INFO: [Water  ] Wrightsville Beach, NC
09:11:35 INFO: [No Data] Springmaid Pier, SC
09:11:40 INFO: [Land   ] Oyster Landing (N Inlet Estuary), SC
09:11:45 INFO: [Land   ] Charleston, SC
09:11:49 INFO: [Land   ] Fernandina Beach, FL
09:11:52 INFO: [Land   ] Mayport (Bar Pilots Dock), FL
09:11:56 INFO: [Land   ] Dames Point, FL
09:11:59 INFO: [Land   ] Southbank Riverwalk, St Johns River, FL
09:12:03 INFO: [Land   ] I-295 Bridge, St Johns River, FL
09:12:09 INFO: [Land   ] Red Bay Point, St Johns River, FL
09:12:13 INFO: [Land   ] Trident Pier, FL
09:12:16 INFO: [Water  ] Lake Worth Pier, FL
09:12:22 INFO: [Land   ] Vaca Key, FL
09:12:28 INFO: [Land   ] Key West, FL
09:12:28 INFO: [No Data] Naples, FL
09:12:36 INFO: [Land   ] Fort Myers, FL
09:12:39 INFO: [Land   ] Port Manatee, FL
09:12:43 INFO: [Land   ] St Petersburg, FL
09:12:49 INFO: [Land   ] Old Port Tampa, FL
09:12:53 INFO: [Land   ] Apalachicola, FL
09:12:57 INFO: [Land   ] Panama City, FL
09:12:57 INFO: [No Data] Panama City Beach, FL
09:13:00 INFO: [Land   ] Pensacola, FL
09:13:03 INFO: [Land   ] Tolomato River station
09:13:07 INFO: [Land   ] Fred Howard Park
09:13:12 INFO: [Land   ] 
09:13:12 INFO: [No Data] Big Carlos Pass
09:13:15 INFO: [Land   ] Shell Point
09:13:17 INFO: [Land   ] St Lucie Inlet station
09:13:22 INFO: [Land   ] Naples Bay station
09:13:26 INFO: [Land   ] Vero Beach station
09:13:32 INFO: [Water  ] Ponce De Leon South station
09:13:35 INFO: [Land   ] Melbourne station
09:13:38 INFO: [Land   ] Aripeka
09:13:44 INFO: [Land   ] Bing&#39;s Landing station
09:13:46 INFO: [Land   ] Binney Dock station
09:13:49 INFO: [Land   ] Gordon River Inlet station
09:13:49 INFO: Finished processing [HYCOM]: http://crow.marine.usf.edu:8080/thredds/dodsC/WFS_SWAN_NF_model/USF_Ocean_Circulation_Group_West_Florida_Shelf_Daily_SWAN_Nowcast_Forecast_Wave_Model_Data_best.ncd
09:13:49 INFO: ******* Saving to file 2014-07-07/2014-07-07-USF_ROMS.nc *******
09:13:49 INFO: [No Data] Duck, NC
09:13:49 INFO: [No Data] Oregon Inlet Marina, NC
09:13:49 INFO: [No Data] USCG Station Hatteras, NC
09:13:49 INFO: [No Data] Beaufort, NC
09:13:49 INFO: [No Data] Wilmington, NC
09:13:49 INFO: [No Data] Wrightsville Beach, NC
09:13:49 INFO: [No Data] Springmaid Pier, SC
09:13:49 INFO: [No Data] Oyster Landing (N Inlet Estuary), SC
09:13:49 INFO: [No Data] Charleston, SC
09:13:49 INFO: [No Data] Fernandina Beach, FL
09:13:49 INFO: [No Data] Mayport (Bar Pilots Dock), FL
09:13:49 INFO: [No Data] Dames Point, FL
09:13:49 INFO: [No Data] Southbank Riverwalk, St Johns River, FL
09:13:49 INFO: [No Data] I-295 Bridge, St Johns River, FL
09:13:49 INFO: [No Data] Red Bay Point, St Johns River, FL
09:13:49 INFO: [No Data] Trident Pier, FL
09:13:49 INFO: [No Data] Lake Worth Pier, FL
09:13:49 INFO: [No Data] Vaca Key, FL
09:13:49 INFO: [No Data] Key West, FL
09:13:51 INFO: [Water  ] Naples, FL
09:13:54 INFO: [Water  ] Fort Myers, FL
09:13:58 INFO: [Water  ] Port Manatee, FL
09:13:58 INFO: [No Data] St Petersburg, FL
09:14:01 INFO: [Water  ] Old Port Tampa, FL
09:14:05 INFO: [Water  ] Apalachicola, FL
09:14:09 INFO: [Water  ] Panama City, FL
09:14:13 INFO: [Water  ] Panama City Beach, FL
09:14:13 INFO: [No Data] Pensacola, FL
09:14:13 INFO: [No Data] Tolomato River station
09:14:15 INFO: [Water  ] Fred Howard Park
09:14:19 INFO: [Water  ] 
09:14:21 INFO: [Water  ] Big Carlos Pass
09:14:29 INFO: [Water  ] Shell Point
09:14:29 INFO: [No Data] St Lucie Inlet station
09:14:31 INFO: [Water  ] Naples Bay station
09:14:31 INFO: [No Data] Vero Beach station
09:14:31 INFO: [No Data] Ponce De Leon South station
09:14:31 INFO: [No Data] Melbourne station
09:14:36 INFO: [Water  ] Aripeka
09:14:36 INFO: [No Data] Bing&#39;s Landing station
09:14:36 INFO: [No Data] Binney Dock station
09:14:39 INFO: [Water  ] Gordon River Inlet station
09:15:08 INFO: Finished processing [USF_ROMS]: http://crow.marine.usf.edu:8080/thredds/dodsC/WFS_SWAN_NF_model/USF_Ocean_Circulation_Group_West_Florida_Shelf_Daily_SWAN_Nowcast_Forecast_Wave_Model_Data_best.ncd
09:15:08 INFO: ****** Saving to file 2014-07-07/2014-07-07-USF_FVCOM.nc *******
09:15:08 INFO: [No Data] Duck, NC
09:15:08 INFO: [No Data] Oregon Inlet Marina, NC
09:15:08 INFO: [No Data] USCG Station Hatteras, NC
09:15:08 INFO: [No Data] Beaufort, NC
09:15:08 INFO: [No Data] Wilmington, NC
09:15:08 INFO: [No Data] Wrightsville Beach, NC
09:15:08 INFO: [No Data] Springmaid Pier, SC
09:15:08 INFO: [No Data] Oyster Landing (N Inlet Estuary), SC
09:15:08 INFO: [No Data] Charleston, SC
09:15:08 INFO: [No Data] Fernandina Beach, FL
09:15:08 INFO: [No Data] Mayport (Bar Pilots Dock), FL
09:15:08 INFO: [No Data] Dames Point, FL
09:15:08 INFO: [No Data] Southbank Riverwalk, St Johns River, FL
09:15:08 INFO: [No Data] I-295 Bridge, St Johns River, FL
09:15:08 INFO: [No Data] Red Bay Point, St Johns River, FL
09:15:08 INFO: [No Data] Trident Pier, FL
09:15:08 INFO: [No Data] Lake Worth Pier, FL
09:15:21 INFO: [Water  ] Vaca Key, FL
09:15:36 INFO: [Water  ] Key West, FL
09:15:54 INFO: [Water  ] Naples, FL
09:16:08 INFO: [Water  ] Fort Myers, FL
09:16:23 INFO: [Water  ] Port Manatee, FL
09:16:39 INFO: [Water  ] St Petersburg, FL
09:16:52 INFO: [Water  ] Old Port Tampa, FL
09:17:09 INFO: [Water  ] Apalachicola, FL
09:17:09 INFO: [No Data] Panama City, FL
09:17:20 INFO: [Water  ] Panama City Beach, FL
09:17:20 INFO: [No Data] Pensacola, FL
09:17:20 INFO: [No Data] Tolomato River station
09:17:35 INFO: [Water  ] Fred Howard Park
09:17:42 INFO: [Water  ] 
09:17:57 INFO: [Water  ] Big Carlos Pass
09:18:11 INFO: [Water  ] Shell Point
09:18:11 INFO: [No Data] St Lucie Inlet station
09:18:23 INFO: [Water  ] Naples Bay station
09:18:23 INFO: [No Data] Vero Beach station
09:18:23 INFO: [No Data] Ponce De Leon South station
09:18:23 INFO: [No Data] Melbourne station
09:18:36 INFO: [Water  ] Aripeka
09:18:36 INFO: [No Data] Bing&#39;s Landing station
09:18:36 INFO: [No Data] Binney Dock station
09:18:51 INFO: [Water  ] Gordon River Inlet station
09:18:51 INFO: Finished processing [USF_FVCOM]: http://crow.marine.usf.edu:8080/thredds/dodsC/WFS_SWAN_NF_model/USF_Ocean_Circulation_Group_West_Florida_Shelf_Daily_SWAN_Nowcast_Forecast_Wave_Model_Data_best.ncd
09:18:51 INFO: ******* Saving to file 2014-07-07/2014-07-07-COAWST_4.nc *******
09:18:57 INFO: [Land   ] Duck, NC
09:19:13 INFO: [Water  ] Oregon Inlet Marina, NC
09:19:19 INFO: [Water  ] USCG Station Hatteras, NC
09:19:32 INFO: [Land   ] Beaufort, NC
09:19:38 INFO: [Land   ] Wilmington, NC
09:19:44 INFO: [Water  ] Wrightsville Beach, NC
09:19:56 INFO: [Water  ] Springmaid Pier, SC
09:20:03 INFO: [Land   ] Oyster Landing (N Inlet Estuary), SC
09:20:09 INFO: [Land   ] Charleston, SC
09:20:15 INFO: [Land   ] Fernandina Beach, FL
09:20:22 INFO: [Land   ] Mayport (Bar Pilots Dock), FL
09:20:28 INFO: [Land   ] Dames Point, FL
09:20:34 INFO: [Land   ] Southbank Riverwalk, St Johns River, FL
09:20:39 INFO: [Land   ] I-295 Bridge, St Johns River, FL
09:20:46 INFO: [Land   ] Red Bay Point, St Johns River, FL
09:20:54 INFO: [Land   ] Trident Pier, FL
09:21:05 INFO: [Water  ] Lake Worth Pier, FL
09:21:14 INFO: [Land   ] Vaca Key, FL
09:21:29 INFO: [Water  ] Key West, FL
09:21:35 INFO: [Land   ] Naples, FL
09:21:41 INFO: [Land   ] Fort Myers, FL
09:21:46 INFO: [Land   ] Port Manatee, FL
09:21:53 INFO: [Land   ] St Petersburg, FL
09:22:06 INFO: [Water  ] Old Port Tampa, FL
09:22:11 INFO: [Water  ] Apalachicola, FL
09:22:16 INFO: [Water  ] Panama City, FL
09:22:31 INFO: [Land   ] Panama City Beach, FL
09:22:37 INFO: [Water  ] Pensacola, FL
09:22:44 INFO: [Land   ] Tolomato River station
09:22:50 INFO: [Land   ] Fred Howard Park
09:22:56 INFO: [Land   ] 
09:23:03 INFO: [Water  ] Big Carlos Pass
09:23:09 INFO: [Land   ] Shell Point
09:23:23 INFO: [Water  ] St Lucie Inlet station
09:23:30 INFO: [Land   ] Naples Bay station
09:23:45 INFO: [Land   ] Vero Beach station
09:23:52 INFO: [Water  ] Ponce De Leon South station
09:23:59 INFO: [Land   ] Melbourne station
09:24:05 INFO: [Land   ] Aripeka
09:24:12 INFO: [Land   ] Bing&#39;s Landing station
09:24:25 INFO: [Land   ] Binney Dock station
09:24:33 INFO: [Land   ] Gordon River Inlet station
09:25:59 INFO: Finished processing [COAWST_4]: http://crow.marine.usf.edu:8080/thredds/dodsC/WFS_SWAN_NF_model/USF_Ocean_Circulation_Group_West_Florida_Shelf_Daily_SWAN_Nowcast_Forecast_Wave_Model_Data_best.ncd
09:25:59 INFO: ******** Saving to file 2014-07-07/2014-07-07-BTMPB.nc *********
09:25:59 INFO: [No Data] Duck, NC
09:25:59 INFO: [No Data] Oregon Inlet Marina, NC
09:25:59 INFO: [No Data] USCG Station Hatteras, NC
09:25:59 INFO: [No Data] Beaufort, NC
09:25:59 INFO: [No Data] Wilmington, NC
09:25:59 INFO: [No Data] Wrightsville Beach, NC
09:25:59 INFO: [No Data] Springmaid Pier, SC
09:25:59 INFO: [No Data] Oyster Landing (N Inlet Estuary), SC
09:25:59 INFO: [No Data] Charleston, SC
09:25:59 INFO: [No Data] Fernandina Beach, FL
09:25:59 INFO: [No Data] Mayport (Bar Pilots Dock), FL
09:25:59 INFO: [No Data] Dames Point, FL
09:25:59 INFO: [No Data] Southbank Riverwalk, St Johns River, FL
09:25:59 INFO: [No Data] I-295 Bridge, St Johns River, FL
09:25:59 INFO: [No Data] Red Bay Point, St Johns River, FL
09:25:59 INFO: [No Data] Trident Pier, FL
09:25:59 INFO: [No Data] Lake Worth Pier, FL
09:25:59 INFO: [No Data] Vaca Key, FL
09:25:59 INFO: [No Data] Key West, FL
09:25:59 INFO: [No Data] Naples, FL
09:25:59 INFO: [No Data] Fort Myers, FL
09:25:59 INFO: [No Data] Port Manatee, FL
09:25:59 INFO: [No Data] St Petersburg, FL
09:25:59 INFO: [No Data] Old Port Tampa, FL
09:25:59 INFO: [No Data] Apalachicola, FL
09:25:59 INFO: [No Data] Panama City, FL
09:25:59 INFO: [No Data] Panama City Beach, FL
09:25:59 INFO: [No Data] Pensacola, FL
09:25:59 INFO: [No Data] Tolomato River station
09:25:59 INFO: [No Data] Fred Howard Park
09:25:59 INFO: [No Data] 
09:25:59 INFO: [No Data] Big Carlos Pass
09:25:59 INFO: [No Data] Shell Point
09:25:59 INFO: [No Data] St Lucie Inlet station
09:25:59 INFO: [No Data] Naples Bay station
09:25:59 INFO: [No Data] Vero Beach station
09:25:59 INFO: [No Data] Ponce De Leon South station
09:25:59 INFO: [No Data] Melbourne station
09:25:59 INFO: [No Data] Aripeka
09:25:59 INFO: [No Data] Bing&#39;s Landing station
09:25:59 INFO: [No Data] Binney Dock station
09:25:59 INFO: [No Data] Gordon River Inlet station
09:25:59 INFO: Finished processing [BTMPB]: http://crow.marine.usf.edu:8080/thredds/dodsC/WFS_SWAN_NF_model/USF_Ocean_Circulation_Group_West_Florida_Shelf_Daily_SWAN_Nowcast_Forecast_Wave_Model_Data_best.ncd
09:25:59 INFO: ******* Saving to file 2014-07-07/2014-07-07-ESPRESSO.nc *******
09:26:03 INFO: [Land   ] Duck, NC
09:26:06 INFO: [Water  ] Oregon Inlet Marina, NC
09:26:09 INFO: [Land   ] USCG Station Hatteras, NC
09:26:13 INFO: [Water  ] Beaufort, NC
09:26:13 INFO: [No Data] Wilmington, NC
09:26:13 INFO: [No Data] Wrightsville Beach, NC
09:26:13 INFO: [No Data] Springmaid Pier, SC
09:26:13 INFO: [No Data] Oyster Landing (N Inlet Estuary), SC
09:26:13 INFO: [No Data] Charleston, SC
09:26:13 INFO: [No Data] Fernandina Beach, FL
09:26:13 INFO: [No Data] Mayport (Bar Pilots Dock), FL
09:26:13 INFO: [No Data] Dames Point, FL
09:26:13 INFO: [No Data] Southbank Riverwalk, St Johns River, FL
09:26:13 INFO: [No Data] I-295 Bridge, St Johns River, FL
09:26:13 INFO: [No Data] Red Bay Point, St Johns River, FL
09:26:13 INFO: [No Data] Trident Pier, FL
09:26:13 INFO: [No Data] Lake Worth Pier, FL
09:26:13 INFO: [No Data] Vaca Key, FL
09:26:13 INFO: [No Data] Key West, FL
09:26:13 INFO: [No Data] Naples, FL
09:26:13 INFO: [No Data] Fort Myers, FL
09:26:13 INFO: [No Data] Port Manatee, FL
09:26:13 INFO: [No Data] St Petersburg, FL
09:26:13 INFO: [No Data] Old Port Tampa, FL
09:26:13 INFO: [No Data] Apalachicola, FL
09:26:13 INFO: [No Data] Panama City, FL
09:26:13 INFO: [No Data] Panama City Beach, FL
09:26:13 INFO: [No Data] Pensacola, FL
09:26:13 INFO: [No Data] Tolomato River station
09:26:13 INFO: [No Data] Fred Howard Park
09:26:13 INFO: [No Data] 
09:26:13 INFO: [No Data] Big Carlos Pass
09:26:13 INFO: [No Data] Shell Point
09:26:13 INFO: [No Data] St Lucie Inlet station
09:26:13 INFO: [No Data] Naples Bay station
09:26:13 INFO: [No Data] Vero Beach station
09:26:13 INFO: [No Data] Ponce De Leon South station
09:26:13 INFO: [No Data] Melbourne station
09:26:13 INFO: [No Data] Aripeka
09:26:13 INFO: [No Data] Bing&#39;s Landing station
09:26:13 INFO: [No Data] Binney Dock station
09:26:13 INFO: [No Data] Gordon River Inlet station
09:26:19 INFO: Finished processing [ESPRESSO]: http://crow.marine.usf.edu:8080/thredds/dodsC/WFS_SWAN_NF_model/USF_Ocean_Circulation_Group_West_Florida_Shelf_Daily_SWAN_Nowcast_Forecast_Wave_Model_Data_best.ncd
09:26:20 WARNING: /home/filipe/miniconda/envs/SECOORA/lib/python2.7/site-packages/pandas/util/decorators.py:81: FutureWarning: the 'cols' keyword is deprecated, use 'subset' instead
  warnings.warn(msg, FutureWarning)

09:26:24 WARNING: /home/filipe/miniconda/envs/SECOORA/lib/python2.7/site-packages/numpy/core/_methods.py:59: RuntimeWarning: Mean of empty slice.
  warnings.warn("Mean of empty slice.", RuntimeWarning)

09:26:42 INFO: 46.93 minutes
09:26:42 INFO: EOF
