06:28:29 INFO: *********************** Run information ************************
06:28:29 INFO: Run date: 2015-02-11 21:28:29
06:28:29 INFO: Download start: 2014-06-30 12:00:00
06:28:29 INFO: Download stop: 2014-07-07 12:00:00
06:28:29 INFO: Bounding box: -87.40, 24.25,-74.70, 36.70
06:28:29 INFO: *********************** Software version ***********************
06:28:29 INFO: Iris version: 1.7.2-DEV
06:28:29 INFO: owslib version: 0.8-dev
06:28:29 INFO: pyoos version: 0.6.2
06:28:33 INFO: ********************* Catalog information **********************
06:28:33 INFO: URL: http://www.ngdc.noaa.gov/geoportal/csw
06:28:33 INFO: CSW version: 2.0.2
06:28:33 INFO: Number of datasets available: 9
06:28:33 INFO: ***************************** CSW ******************************
06:28:33 INFO: USF FVCOM - Nowcast Aggregation
06:28:33 INFO: ROMS/TOMS 3.0 - New Floria Shelf Application
06:28:33 INFO: ROMS/TOMS 3.0 - South-Atlantic Bight and Gulf of Mexico
06:28:33 INFO: COAWST Forecast System : USGS : US East Coast and Gulf of Mexico (Experimental)
06:28:33 INFO: ROMS ESPRESSO Real-Time Operational IS4DVAR Forecast System Version 2 (NEW) 2013-present FMRC History (Best)
06:28:33 INFO: Barotropic Tide Model for the Pacific Basin
06:28:33 INFO: HYbrid Coordinate Ocean Model (HYCOM): Global
06:28:33 INFO: ESTOFS Storm Surge Model - Atlantic - v1.0.0 - NOAA - NCEP - ADCIRC
06:28:33 INFO: NECOFS GOM3 Wave - Northeast US - Latest Forecast
06:28:33 INFO: ***************************** DAP ******************************
06:28:33 INFO: http://crow.marine.usf.edu:8080/thredds/dodsC/FVCOM-Nowcast-Agg.nc.html
06:28:33 INFO: http://crow.marine.usf.edu:8080/thredds/dodsC/WFS_ROMS_NF_model/USF_Ocean_Circulation_Group_West_Florida_Shelf_Daily_ROMS_Nowcast_Forecast_Model_Data_best.ncd.html
06:28:33 INFO: http://geoport-dev.whoi.edu/thredds/dodsC/estofs/atlantic.html
06:28:33 INFO: http://geoport.whoi.edu/thredds/dodsC/coawst_4/use/fmrc/coawst_4_use_best.ncd.html
06:28:33 INFO: http://omgsrv1.meas.ncsu.edu:8080/thredds/dodsC/fmrc/sabgom/SABGOM_Forecast_Model_Run_Collection_best.ncd.html
06:28:33 INFO: http://oos.soest.hawaii.edu/thredds/dodsC/hioos/tide_pac.html
06:28:33 INFO: http://oos.soest.hawaii.edu/thredds/dodsC/pacioos/hycom/global.html
06:28:33 INFO: http://tds.marine.rutgers.edu/thredds/dodsC/roms/espresso/2013_da/his_Best/ESPRESSO_Real-Time_v2_History_Best_Available_best.ncd.html
06:28:33 INFO: http://www.smast.umassd.edu:8080/thredds/dodsC/FVCOM/NECOFS/Forecasts/NECOFS_WAVE_FORECAST.nc.html
06:28:33 INFO: ***************************** SOS ******************************
06:28:33 WARNING: USEAST not in the NGDC csw
06:28:33 WARNING: USF_SWAN not in the NGDC csw
06:28:39 WARNING: /home/filipe/miniconda/envs/SECOORA/lib/python2.7/site-packages/iris/fileformats/_pyke_rules/compiled_krb/fc_rules_cf_fc.py:1359: UserWarning: Failed to create 'time' dimension coordinate: The points array must be strictly monotonic.
Gracefully creating 'time' auxiliary coordinate instead.
  error=e_msg))

06:28:39 WARNING: Cannot get cube for: http://129.252.139.124/thredds/dodsC/fit.sispnj.met.nc
Cube does not contain ['sea_surface_height', 'sea_surface_elevation', 'sea_surface_height_above_geoid', 'sea_surface_height_above_sea_level', 'water_surface_height_above_reference_datum', 'sea_surface_height_above_reference_ellipsoid']
06:28:43 WARNING: Cannot get cube for: http://129.252.139.124/thredds/dodsC/usf.nfb.ngwlms.nc
Cube does not contain ['sea_surface_height', 'sea_surface_elevation', 'sea_surface_height_above_geoid', 'sea_surface_height_above_sea_level', 'water_surface_height_above_reference_datum', 'sea_surface_height_above_reference_ellipsoid']
06:28:55 WARNING: Cannot get cube for: http://129.252.139.124/thredds/dodsC/usf.c21.weatherpak.nc
Cube does not contain ['sea_surface_height', 'sea_surface_elevation', 'sea_surface_height_above_geoid', 'sea_surface_height_above_sea_level', 'water_surface_height_above_reference_datum', 'sea_surface_height_above_reference_ellipsoid']
06:29:14 WARNING: Cannot get cube for: http://129.252.139.124/thredds/dodsC/usf.c10.mcat.nc
Cube does not contain ['sea_surface_height', 'sea_surface_elevation', 'sea_surface_height_above_geoid', 'sea_surface_height_above_sea_level', 'water_surface_height_above_reference_datum', 'sea_surface_height_above_reference_ellipsoid']
06:29:16 WARNING: Cannot get cube for: http://129.252.139.124/thredds/dodsC/usf.c12.mcat.nc
Cube does not contain ['sea_surface_height', 'sea_surface_elevation', 'sea_surface_height_above_geoid', 'sea_surface_height_above_sea_level', 'water_surface_height_above_reference_datum', 'sea_surface_height_above_reference_ellipsoid']
06:29:19 WARNING: Cannot get cube for: http://129.252.139.124/thredds/dodsC/usf.c13.mcat.nc
Cube does not contain ['sea_surface_height', 'sea_surface_elevation', 'sea_surface_height_above_geoid', 'sea_surface_height_above_sea_level', 'water_surface_height_above_reference_datum', 'sea_surface_height_above_reference_ellipsoid']
06:29:22 WARNING: Cannot get cube for: http://129.252.139.124/thredds/dodsC/usf.c10.mcat_2011.nc
Cube does not contain ['sea_surface_height', 'sea_surface_elevation', 'sea_surface_height_above_geoid', 'sea_surface_height_above_sea_level', 'water_surface_height_above_reference_datum', 'sea_surface_height_above_reference_ellipsoid']
06:29:25 WARNING: Cannot get cube for: http://129.252.139.124/thredds/dodsC/usf.c12.mcat_2011.nc
Cube does not contain ['sea_surface_height', 'sea_surface_elevation', 'sea_surface_height_above_geoid', 'sea_surface_height_above_sea_level', 'water_surface_height_above_reference_datum', 'sea_surface_height_above_reference_ellipsoid']
06:29:28 WARNING: Cannot get cube for: http://129.252.139.124/thredds/dodsC/usf.c13.mcat_2011.nc
Cube does not contain ['sea_surface_height', 'sea_surface_elevation', 'sea_surface_height_above_geoid', 'sea_surface_height_above_sea_level', 'water_surface_height_above_reference_datum', 'sea_surface_height_above_reference_ellipsoid']
06:29:31 WARNING: Cannot get cube for: http://129.252.139.124/thredds/dodsC/carocoops.sun2.buoy.nc
Cube does not contain ['sea_surface_height', 'sea_surface_elevation', 'sea_surface_height_above_geoid', 'sea_surface_height_above_sea_level', 'water_surface_height_above_reference_datum', 'sea_surface_height_above_reference_ellipsoid']
06:29:35 WARNING: Cannot get cube for: http://129.252.139.124/thredds/dodsC/carocoops.frp2.buoy.nc
Cube does not contain ['sea_surface_height', 'sea_surface_elevation', 'sea_surface_height_above_geoid', 'sea_surface_height_above_sea_level', 'water_surface_height_above_reference_datum', 'sea_surface_height_above_reference_ellipsoid']
06:29:39 WARNING: Cannot get cube for: http://129.252.139.124/thredds/dodsC/carocoops.cap2.buoy.nc
Cube does not contain ['sea_surface_height', 'sea_surface_elevation', 'sea_surface_height_above_geoid', 'sea_surface_height_above_sea_level', 'water_surface_height_above_reference_datum', 'sea_surface_height_above_reference_ellipsoid']
06:29:43 WARNING: Cannot get cube for: http://129.252.139.124/thredds/dodsC/cormp.ilm3.buoy.nc
Cube does not contain ['sea_surface_height', 'sea_surface_elevation', 'sea_surface_height_above_geoid', 'sea_surface_height_above_sea_level', 'water_surface_height_above_reference_datum', 'sea_surface_height_above_reference_ellipsoid']
06:29:50 WARNING: Cannot get cube for: http://129.252.139.124/thredds/dodsC/cormp.ilm2.buoy.nc
Cube does not contain ['sea_surface_height', 'sea_surface_elevation', 'sea_surface_height_above_geoid', 'sea_surface_height_above_sea_level', 'water_surface_height_above_reference_datum', 'sea_surface_height_above_reference_ellipsoid']
06:29:51 WARNING: Cannot get cube for: http://129.252.139.124/thredds/dodsC/cormp.ilm1.buoy.nc
Cube does not contain ['sea_surface_height', 'sea_surface_elevation', 'sea_surface_height_above_geoid', 'sea_surface_height_above_sea_level', 'water_surface_height_above_reference_datum', 'sea_surface_height_above_reference_ellipsoid']
06:29:55 WARNING: Cannot get cube for: http://129.252.139.124/thredds/dodsC/cormp.lej3.buoy.nc
Cube does not contain ['sea_surface_height', 'sea_surface_elevation', 'sea_surface_height_above_geoid', 'sea_surface_height_above_sea_level', 'water_surface_height_above_reference_datum', 'sea_surface_height_above_reference_ellipsoid']
06:29:58 WARNING: /home/filipe/miniconda/envs/SECOORA/lib/python2.7/site-packages/iris/fileformats/_pyke_rules/compiled_krb/fc_rules_cf_fc.py:1196: UserWarning: Ignoring netCDF variable 'dissolved_oxygen_saturation' invalid units 'mg_L-1'
  warnings.warn(msg.format(msg_name, msg_units))

06:29:59 WARNING: /home/filipe/miniconda/envs/SECOORA/lib/python2.7/site-packages/iris/fileformats/_pyke_rules/compiled_krb/fc_rules_cf_fc.py:1196: UserWarning: Ignoring netCDF variable 'dissolved_oxygen' invalid units 'mg_L-1'
  warnings.warn(msg.format(msg_name, msg_units))

06:29:59 WARNING: /home/filipe/miniconda/envs/SECOORA/lib/python2.7/site-packages/iris/fileformats/_pyke_rules/compiled_krb/fc_rules_cf_fc.py:1196: UserWarning: Ignoring netCDF variable 'cdom' invalid units 'QSDE'
  warnings.warn(msg.format(msg_name, msg_units))

06:29:59 WARNING: /home/filipe/miniconda/envs/SECOORA/lib/python2.7/site-packages/iris/fileformats/_pyke_rules/compiled_krb/fc_rules_cf_fc.py:1196: UserWarning: Ignoring netCDF variable 'turbidity' invalid units 'ntu'
  warnings.warn(msg.format(msg_name, msg_units))

06:29:59 WARNING: /home/filipe/miniconda/envs/SECOORA/lib/python2.7/site-packages/iris/fileformats/_pyke_rules/compiled_krb/fc_rules_cf_fc.py:1196: UserWarning: Ignoring netCDF variable 'conductivity' invalid units 'mS_cm-1'
  warnings.warn(msg.format(msg_name, msg_units))

06:29:59 WARNING: Cannot get cube for: http://129.252.139.124/thredds/dodsC/sccf.gulfofmexico.wq.nc
Cube does not contain ['sea_surface_height', 'sea_surface_elevation', 'sea_surface_height_above_geoid', 'sea_surface_height_above_sea_level', 'water_surface_height_above_reference_datum', 'sea_surface_height_above_reference_ellipsoid']
06:30:02 WARNING: /home/filipe/miniconda/envs/SECOORA/lib/python2.7/site-packages/iris/fileformats/_pyke_rules/compiled_krb/fc_rules_cf_fc.py:1196: UserWarning: Ignoring netCDF variable 'nitrate' invalid units 'uM'
  warnings.warn(msg.format(msg_name, msg_units))

06:30:02 WARNING: Cannot get cube for: http://129.252.139.124/thredds/dodsC/sccf.shellpoint.wq.nc
Cube does not contain ['sea_surface_height', 'sea_surface_elevation', 'sea_surface_height_above_geoid', 'sea_surface_height_above_sea_level', 'water_surface_height_above_reference_datum', 'sea_surface_height_above_reference_ellipsoid']
06:30:06 WARNING: Cannot get cube for: http://129.252.139.124/thredds/dodsC/sccf.redfishpass.wq.nc
Cube does not contain ['sea_surface_height', 'sea_surface_elevation', 'sea_surface_height_above_geoid', 'sea_surface_height_above_sea_level', 'water_surface_height_above_reference_datum', 'sea_surface_height_above_reference_ellipsoid']
06:30:10 WARNING: Cannot get cube for: http://129.252.139.124/thredds/dodsC/sccf.tarponbay.wq.nc
Cube does not contain ['sea_surface_height', 'sea_surface_elevation', 'sea_surface_height_above_geoid', 'sea_surface_height_above_sea_level', 'water_surface_height_above_reference_datum', 'sea_surface_height_above_reference_ellipsoid']
06:30:12 WARNING: Cannot get cube for: http://129.252.139.124/thredds/dodsC/sccf.fortmyers.wq.nc
Cube does not contain ['sea_surface_height', 'sea_surface_elevation', 'sea_surface_height_above_geoid', 'sea_surface_height_above_sea_level', 'water_surface_height_above_reference_datum', 'sea_surface_height_above_reference_ellipsoid']
06:30:17 WARNING: /home/filipe/miniconda/envs/SECOORA/lib/python2.7/site-packages/iris/fileformats/_pyke_rules/compiled_krb/fc_rules_cf_fc.py:1196: UserWarning: Ignoring netCDF variable 'conductivity_2' invalid units 'mS_cm-1'
  warnings.warn(msg.format(msg_name, msg_units))

06:30:29 WARNING: Cannot get cube for: http://129.252.139.124/thredds/dodsC/fldep.redbaypoint..nc
istart must be different from istop! Got istart 43 and  istop 43
06:31:15 WARNING: Cannot get cube for: http://129.252.139.124/thredds/dodsC/lbhmc.2ndave.pier.nc
Cube does not contain ['sea_surface_height', 'sea_surface_elevation', 'sea_surface_height_above_geoid', 'sea_surface_height_above_sea_level', 'water_surface_height_above_reference_datum', 'sea_surface_height_above_reference_ellipsoid']
06:31:20 WARNING: /home/filipe/miniconda/envs/SECOORA/lib/python2.7/site-packages/iris/fileformats/_pyke_rules/compiled_krb/fc_rules_cf_fc.py:1196: UserWarning: Ignoring netCDF variable 'turbidity_2' invalid units 'ntu'
  warnings.warn(msg.format(msg_name, msg_units))

06:31:20 WARNING: /home/filipe/miniconda/envs/SECOORA/lib/python2.7/site-packages/iris/fileformats/_pyke_rules/compiled_krb/fc_rules_cf_fc.py:1196: UserWarning: Ignoring netCDF variable 'dissolved_oxygen_2' invalid units 'mg_L-1'
  warnings.warn(msg.format(msg_name, msg_units))

06:31:20 WARNING: Cannot get cube for: http://129.252.139.124/thredds/dodsC/lbhmc.cherrygrove.pier.nc
Cube does not contain ['sea_surface_height', 'sea_surface_elevation', 'sea_surface_height_above_geoid', 'sea_surface_height_above_sea_level', 'water_surface_height_above_reference_datum', 'sea_surface_height_above_reference_ellipsoid']
06:31:26 WARNING: Cannot get cube for: http://129.252.139.124/thredds/dodsC/lbhmc.apachepier.pier.nc
Cube does not contain ['sea_surface_height', 'sea_surface_elevation', 'sea_surface_height_above_geoid', 'sea_surface_height_above_sea_level', 'water_surface_height_above_reference_datum', 'sea_surface_height_above_reference_ellipsoid']
06:31:31 WARNING: Cannot get cube for: http://129.252.139.124/thredds/dodsC/enp.wiwf1.met.nc
Cube does not contain ['sea_surface_height', 'sea_surface_elevation', 'sea_surface_height_above_geoid', 'sea_surface_height_above_sea_level', 'water_surface_height_above_reference_datum', 'sea_surface_height_above_reference_ellipsoid']
06:31:35 WARNING: Cannot get cube for: http://129.252.139.124/thredds/dodsC/enp.lbrf1.met.nc
Cube does not contain ['sea_surface_height', 'sea_surface_elevation', 'sea_surface_height_above_geoid', 'sea_surface_height_above_sea_level', 'water_surface_height_above_reference_datum', 'sea_surface_height_above_reference_ellipsoid']
06:31:40 WARNING: Cannot get cube for: http://129.252.139.124/thredds/dodsC/enp.bobf1.met.nc
Cube does not contain ['sea_surface_height', 'sea_surface_elevation', 'sea_surface_height_above_geoid', 'sea_surface_height_above_sea_level', 'water_surface_height_above_reference_datum', 'sea_surface_height_above_reference_ellipsoid']
06:31:44 WARNING: Cannot get cube for: http://129.252.139.124/thredds/dodsC/enp.trrf1.met.nc
Cube does not contain ['sea_surface_height', 'sea_surface_elevation', 'sea_surface_height_above_geoid', 'sea_surface_height_above_sea_level', 'water_surface_height_above_reference_datum', 'sea_surface_height_above_reference_ellipsoid']
06:31:48 WARNING: Cannot get cube for: http://129.252.139.124/thredds/dodsC/enp.wwef1.met.nc
Cube does not contain ['sea_surface_height', 'sea_surface_elevation', 'sea_surface_height_above_geoid', 'sea_surface_height_above_sea_level', 'water_surface_height_above_reference_datum', 'sea_surface_height_above_reference_ellipsoid']
06:31:52 WARNING: Cannot get cube for: http://129.252.139.124/thredds/dodsC/enp.lrif1.met.nc
Cube does not contain ['sea_surface_height', 'sea_surface_elevation', 'sea_surface_height_above_geoid', 'sea_surface_height_above_sea_level', 'water_surface_height_above_reference_datum', 'sea_surface_height_above_reference_ellipsoid']
06:31:55 WARNING: Cannot get cube for: http://129.252.139.124/thredds/dodsC/enp.bwsf1.met.nc
Cube does not contain ['sea_surface_height', 'sea_surface_elevation', 'sea_surface_height_above_geoid', 'sea_surface_height_above_sea_level', 'water_surface_height_above_reference_datum', 'sea_surface_height_above_reference_ellipsoid']
06:31:59 WARNING: Cannot get cube for: http://129.252.139.124/thredds/dodsC/enp.pkyf1.met.nc
Cube does not contain ['sea_surface_height', 'sea_surface_elevation', 'sea_surface_height_above_geoid', 'sea_surface_height_above_sea_level', 'water_surface_height_above_reference_datum', 'sea_surface_height_above_reference_ellipsoid']
06:32:05 WARNING: Cannot get cube for: http://129.252.139.124/thredds/dodsC/enp.lmdf1.met.nc
Cube does not contain ['sea_surface_height', 'sea_surface_elevation', 'sea_surface_height_above_geoid', 'sea_surface_height_above_sea_level', 'water_surface_height_above_reference_datum', 'sea_surface_height_above_reference_ellipsoid']
06:32:09 WARNING: Cannot get cube for: http://129.252.139.124/thredds/dodsC/enp.cnbf1.met.nc
Cube does not contain ['sea_surface_height', 'sea_surface_elevation', 'sea_surface_height_above_geoid', 'sea_surface_height_above_sea_level', 'water_surface_height_above_reference_datum', 'sea_surface_height_above_reference_ellipsoid']
06:32:13 WARNING: Cannot get cube for: http://129.252.139.124/thredds/dodsC/enp.hcef1.met.nc
Cube does not contain ['sea_surface_height', 'sea_surface_elevation', 'sea_surface_height_above_geoid', 'sea_surface_height_above_sea_level', 'water_surface_height_above_reference_datum', 'sea_surface_height_above_reference_ellipsoid']
06:32:16 WARNING: Cannot get cube for: http://129.252.139.124/thredds/dodsC/enp.jkyf1.met.nc
Cube does not contain ['sea_surface_height', 'sea_surface_elevation', 'sea_surface_height_above_geoid', 'sea_surface_height_above_sea_level', 'water_surface_height_above_reference_datum', 'sea_surface_height_above_reference_ellipsoid']
06:32:21 WARNING: Cannot get cube for: http://129.252.139.124/thredds/dodsC/enp.wrbf1.met.nc
Cube does not contain ['sea_surface_height', 'sea_surface_elevation', 'sea_surface_height_above_geoid', 'sea_surface_height_above_sea_level', 'water_surface_height_above_reference_datum', 'sea_surface_height_above_reference_ellipsoid']
06:32:25 WARNING: Cannot get cube for: http://129.252.139.124/thredds/dodsC/enp.gbif1.met.nc
Cube does not contain ['sea_surface_height', 'sea_surface_elevation', 'sea_surface_height_above_geoid', 'sea_surface_height_above_sea_level', 'water_surface_height_above_reference_datum', 'sea_surface_height_above_reference_ellipsoid']
06:32:29 WARNING: Cannot get cube for: http://129.252.139.124/thredds/dodsC/enp.ppta1.met.nc
Cube does not contain ['sea_surface_height', 'sea_surface_elevation', 'sea_surface_height_above_geoid', 'sea_surface_height_above_sea_level', 'water_surface_height_above_reference_datum', 'sea_surface_height_above_reference_ellipsoid']
06:32:32 WARNING: Cannot get cube for: http://129.252.139.124/thredds/dodsC/enp.bdvf1.met.nc
Cube does not contain ['sea_surface_height', 'sea_surface_elevation', 'sea_surface_height_above_geoid', 'sea_surface_height_above_sea_level', 'water_surface_height_above_reference_datum', 'sea_surface_height_above_reference_ellipsoid']
06:32:36 WARNING: Cannot get cube for: http://129.252.139.124/thredds/dodsC/enp.lrkf1.met.nc
Cube does not contain ['sea_surface_height', 'sea_surface_elevation', 'sea_surface_height_above_geoid', 'sea_surface_height_above_sea_level', 'water_surface_height_above_reference_datum', 'sea_surface_height_above_reference_ellipsoid']
06:32:41 WARNING: Cannot get cube for: http://129.252.139.124/thredds/dodsC/enp.bnkf1.met.nc
Cube does not contain ['sea_surface_height', 'sea_surface_elevation', 'sea_surface_height_above_geoid', 'sea_surface_height_above_sea_level', 'water_surface_height_above_reference_datum', 'sea_surface_height_above_reference_ellipsoid']
06:32:45 WARNING: Cannot get cube for: http://129.252.139.124/thredds/dodsC/enp.gbtf1.met.nc
Cube does not contain ['sea_surface_height', 'sea_surface_elevation', 'sea_surface_height_above_geoid', 'sea_surface_height_above_sea_level', 'water_surface_height_above_reference_datum', 'sea_surface_height_above_reference_ellipsoid']
06:32:49 WARNING: Cannot get cube for: http://129.252.139.124/thredds/dodsC/enp.tcvf1.met.nc
Cube does not contain ['sea_surface_height', 'sea_surface_elevation', 'sea_surface_height_above_geoid', 'sea_surface_height_above_sea_level', 'water_surface_height_above_reference_datum', 'sea_surface_height_above_reference_ellipsoid']
06:32:53 WARNING: Cannot get cube for: http://129.252.139.124/thredds/dodsC/enp.canf1.met.nc
Cube does not contain ['sea_surface_height', 'sea_surface_elevation', 'sea_surface_height_above_geoid', 'sea_surface_height_above_sea_level', 'water_surface_height_above_reference_datum', 'sea_surface_height_above_reference_ellipsoid']
06:32:57 WARNING: Cannot get cube for: http://129.252.139.124/thredds/dodsC/enp.lbsf1.met.nc
Cube does not contain ['sea_surface_height', 'sea_surface_elevation', 'sea_surface_height_above_geoid', 'sea_surface_height_above_sea_level', 'water_surface_height_above_reference_datum', 'sea_surface_height_above_reference_ellipsoid']
06:33:00 WARNING: Cannot get cube for: http://129.252.139.124/thredds/dodsC/enp.mukf1.met.nc
Cube does not contain ['sea_surface_height', 'sea_surface_elevation', 'sea_surface_height_above_geoid', 'sea_surface_height_above_sea_level', 'water_surface_height_above_reference_datum', 'sea_surface_height_above_reference_ellipsoid']
06:33:04 WARNING: Cannot get cube for: http://129.252.139.124/thredds/dodsC/enp.dkkf1.met.nc
Cube does not contain ['sea_surface_height', 'sea_surface_elevation', 'sea_surface_height_above_geoid', 'sea_surface_height_above_sea_level', 'water_surface_height_above_reference_datum', 'sea_surface_height_above_reference_ellipsoid']
06:33:09 WARNING: Cannot get cube for: http://129.252.139.124/thredds/dodsC/enp.cwaf1.met.nc
Cube does not contain ['sea_surface_height', 'sea_surface_elevation', 'sea_surface_height_above_geoid', 'sea_surface_height_above_sea_level', 'water_surface_height_above_reference_datum', 'sea_surface_height_above_reference_ellipsoid']
06:33:19 WARNING: /home/filipe/miniconda/envs/SECOORA/lib/python2.7/site-packages/iris/fileformats/_pyke_rules/compiled_krb/fc_rules_cf_fc.py:1196: UserWarning: Ignoring netCDF variable 'phosphate' invalid units 'uM'
  warnings.warn(msg.format(msg_name, msg_units))

06:33:19 WARNING: /home/filipe/miniconda/envs/SECOORA/lib/python2.7/site-packages/iris/fileformats/_pyke_rules/compiled_krb/fc_rules_cf_fc.py:1196: UserWarning: Ignoring netCDF variable 'photosynthetically_available_radiation' invalid units 'micromoles_per_m^2'
  warnings.warn(msg.format(msg_name, msg_units))

06:33:19 WARNING: Cannot get cube for: http://129.252.139.124/thredds/dodsC/fau.lobo.1.nc
Cube does not contain ['sea_surface_height', 'sea_surface_elevation', 'sea_surface_height_above_geoid', 'sea_surface_height_above_sea_level', 'water_surface_height_above_reference_datum', 'sea_surface_height_above_reference_ellipsoid']
06:33:32 INFO: ********************* Collector offerings **********************
06:33:32 INFO: NOAA.NOS.CO-OPS SOS: 1027 offerings
06:33:41 INFO: SOS URL request: http://opendap.co-ops.nos.noaa.gov/ioos-dif-sos/SOS?eventTime=2014-06-30T12%3A00%3A00Z&service=SOS&offering=urn%3Aioos%3Anetwork%3ANOAA.NOS.CO-OPS%3AWaterLevelActive&request=GetObservation&version=1.0.0&responseFormat=text%2Fcsv&featureOfInterest=BBOX%3A-87.4%2C24.25%2C-74.7%2C36.7&observedProperty=water_surface_height_above_reference_datum
06:34:37 INFO: ************************* Observations *************************
06:34:37 INFO: **** Downloading to file 2014-07-07/2014-07-07-OBS_DATA.nc *****
06:34:44 WARNING: [8654467] USCG Station Hatteras, NC:
'Wrong Datum for this station: The correct Datum values are: MHHW, MHW, MTL, MSL, MLW, MLLW, STND'
06:34:45 WARNING: [8656483] Beaufort, NC:
'Wrong Datum for this station: The correct Datum values are: MHHW, MHW, MTL, MSL, MLW, MLLW, STND'
06:34:46 WARNING: [8658120] Wilmington, NC:
'Wrong Datum for this station: The correct Datum values are: MHHW, MHW, MTL, MSL, MLW, MLLW, STND'
06:35:47 WARNING: [8726520] St Petersburg, FL:
'Wrong Datum for this station: The correct Datum values are: MHHW, MHW, MTL, MSL, MLW, MLLW, STND'
06:35:48 WARNING: [8726607] Old Port Tampa, FL:
'Wrong Datum for this station: The correct Datum values are: MHHW, MHW, MTL, MSL, MLW, MLLW, STND'
06:36:01 WARNING: [8729210] Panama City Beach, FL:
'Wrong Datum for this station: The correct Datum values are: MHHW, MHW, MTL, MSL, MLW, MLLW, STND'
06:36:05 INFO: ********************* SECOORA Observations *********************
06:36:05 INFO:  Downloading to file 2014-07-07/2014-07-07-SECOORA_OBS_DATA.nc *
06:36:06 INFO: **************************** Models ****************************
06:36:06 INFO: 
[Reading url 1/11]: http://crow.marine.usf.edu:8080/thredds/dodsC/FVCOM-Nowcast-Agg.nc
06:36:20 INFO: 
[Reading url 2/11]: http://crow.marine.usf.edu:8080/thredds/dodsC/WFS_ROMS_NF_model/USF_Ocean_Circulation_Group_West_Florida_Shelf_Daily_ROMS_Nowcast_Forecast_Model_Data_best.ncd
06:36:27 INFO: 
[Reading url 3/11]: http://geoport-dev.whoi.edu/thredds/dodsC/estofs/atlantic
06:36:57 INFO: 
[Reading url 4/11]: http://geoport.whoi.edu/thredds/dodsC/coawst_4/use/fmrc/coawst_4_use_best.ncd
06:37:20 INFO: 
[Reading url 5/11]: http://omgarch1.meas.ncsu.edu:8080/thredds/dodsC/fmrc/sabgom/SABGOM_Forecast_Model_Run_Collection_best.ncd
06:37:33 INFO: 
[Reading url 6/11]: http://oos.soest.hawaii.edu/thredds/dodsC/hioos/tide_pac
06:37:42 INFO: 
[Reading url 7/11]: http://oos.soest.hawaii.edu/thredds/dodsC/pacioos/hycom/global
06:37:45 INFO: 
[Reading url 8/11]: http://tds.marine.rutgers.edu/thredds/dodsC/roms/espresso/2013_da/his_Best/ESPRESSO_Real-Time_v2_History_Best_Available_best.ncd
06:37:53 INFO: 
[Reading url 9/11]: http://www.smast.umassd.edu:8080/thredds/dodsC/FVCOM/NECOFS/Forecasts/NECOFS_WAVE_FORECAST.nc
06:37:54 WARNING: Cannot get cube for: http://www.smast.umassd.edu:8080/thredds/dodsC/FVCOM/NECOFS/Forecasts/NECOFS_WAVE_FORECAST.nc
'Expected to find exactly 1  coordinate, but found none.'
06:37:54 INFO: 
[Reading url 10/11]: http://omgsrv1.meas.ncsu.edu:8080/thredds/dodsC/fmrc/us_east/US_East_Forecast_Model_Run_Collection_best.ncd
06:38:06 WARNING: Cannot get cube for: http://omgsrv1.meas.ncsu.edu:8080/thredds/dodsC/fmrc/us_east/US_East_Forecast_Model_Run_Collection_best.ncd
istart must be different from istop! Got istart 0 and  istop 0
06:38:06 INFO: 
[Reading url 11/11]: http://crow.marine.usf.edu:8080/thredds/dodsC/WFS_SWAN_NF_model/USF_Ocean_Circulation_Group_West_Florida_Shelf_Daily_SWAN_Nowcast_Forecast_Wave_Model_Data_best.ncd
06:38:07 WARNING: Cannot get cube for: http://crow.marine.usf.edu:8080/thredds/dodsC/WFS_SWAN_NF_model/USF_Ocean_Circulation_Group_West_Florida_Shelf_Daily_SWAN_Nowcast_Forecast_Wave_Model_Data_best.ncd
Cube does not contain ['sea_surface_height', 'sea_surface_elevation', 'sea_surface_height_above_geoid', 'sea_surface_height_above_sea_level', 'water_surface_height_above_reference_datum', 'sea_surface_height_above_reference_ellipsoid']
06:38:07 INFO: ******** Saving to file 2014-07-07/2014-07-07-ESTOFS.nc ********
06:38:15 INFO: [Water  ] Duck, NC
06:38:19 INFO: [Water  ] Oregon Inlet Marina, NC
06:38:28 INFO: [Water  ] USCG Station Hatteras, NC
06:38:32 INFO: [Water  ] Beaufort, NC
06:38:32 INFO: [No Data] Wilmington, NC
06:38:43 INFO: [Water  ] Wrightsville Beach, NC
06:38:58 INFO: [Water  ] Springmaid Pier, SC
06:39:02 INFO: [Water  ] Oyster Landing (N Inlet Estuary), SC
06:39:02 INFO: [No Data] Charleston, SC
06:39:05 INFO: [Water  ] Fernandina Beach, FL
06:39:09 INFO: [Water  ] Mayport (Bar Pilots Dock), FL
06:39:09 INFO: [No Data] Dames Point, FL
06:39:09 INFO: [No Data] Southbank Riverwalk, St Johns River, FL
06:39:09 INFO: [No Data] I-295 Bridge, St Johns River, FL
06:39:09 INFO: [No Data] Red Bay Point, St Johns River, FL
06:39:09 INFO: [No Data] Racy Point, St Johns River, FL
06:39:16 INFO: [Water  ] Trident Pier, FL
06:39:24 INFO: [Water  ] Lake Worth Pier, FL
06:39:39 INFO: [Water  ] Vaca Key, FL
06:39:49 INFO: [Water  ] Key West, FL
06:40:00 INFO: [Water  ] Naples, FL
06:40:00 INFO: [No Data] Fort Myers, FL
06:40:14 INFO: [Water  ] Port Manatee, FL
06:40:29 INFO: [Water  ] St Petersburg, FL
06:40:39 INFO: [Water  ] Old Port Tampa, FL
06:40:52 INFO: [Water  ] Cedar Key, FL
06:41:04 INFO: [Water  ] Apalachicola, FL
06:41:04 INFO: [No Data] Panama City, FL
06:41:10 INFO: [Water  ] Panama City Beach, FL
06:41:10 INFO: [No Data] Pensacola, FL
06:41:15 INFO: [Water  ] Tolomato River station
06:41:27 INFO: [Water  ] Fred Howard Park
06:41:28 INFO: [Water  ] 
06:41:35 INFO: [Water  ] Big Carlos Pass
06:41:47 INFO: [Water  ] Shell Point
06:41:54 INFO: [Water  ] St Lucie Inlet station
06:41:56 INFO: [Water  ] Naples Bay station
06:42:00 INFO: [Water  ] Vero Beach station
06:42:07 INFO: [Water  ] Ponce De Leon South station
06:42:09 INFO: [Water  ] Melbourne station
06:42:21 INFO: [Water  ] Aripeka
06:42:26 INFO: [Water  ] Bing&#39;s Landing station
06:42:33 INFO: [Water  ] Binney Dock station
06:42:42 INFO: [Water  ] Gordon River Inlet station
06:42:43 INFO: Finished processing [ESTOFS]: http://crow.marine.usf.edu:8080/thredds/dodsC/WFS_SWAN_NF_model/USF_Ocean_Circulation_Group_West_Florida_Shelf_Daily_SWAN_Nowcast_Forecast_Wave_Model_Data_best.ncd
06:42:43 INFO: ******** Saving to file 2014-07-07/2014-07-07-HYCOM.nc *********
06:45:49 INFO: [Land   ] Duck, NC
06:45:52 INFO: [Water  ] Oregon Inlet Marina, NC
06:45:55 INFO: [Land   ] USCG Station Hatteras, NC
06:46:20 INFO: [Land   ] Beaufort, NC
06:46:23 INFO: [Land   ] Wilmington, NC
06:46:27 INFO: [Water  ] Wrightsville Beach, NC
06:46:27 INFO: [No Data] Springmaid Pier, SC
06:46:30 INFO: [Land   ] Oyster Landing (N Inlet Estuary), SC
06:46:51 INFO: [Land   ] Charleston, SC
06:47:17 INFO: [Land   ] Fernandina Beach, FL
06:47:20 INFO: [Land   ] Mayport (Bar Pilots Dock), FL
06:47:24 INFO: [Land   ] Dames Point, FL
06:47:27 INFO: [Land   ] Southbank Riverwalk, St Johns River, FL
06:47:30 INFO: [Land   ] I-295 Bridge, St Johns River, FL
06:47:33 INFO: [Land   ] Red Bay Point, St Johns River, FL
06:47:33 INFO: [No Data] Racy Point, St Johns River, FL
06:47:36 INFO: [Land   ] Trident Pier, FL
06:47:39 INFO: [Water  ] Lake Worth Pier, FL
06:47:43 INFO: [Land   ] Vaca Key, FL
06:47:46 INFO: [Land   ] Key West, FL
06:47:46 INFO: [No Data] Naples, FL
06:47:49 INFO: [Land   ] Fort Myers, FL
06:47:52 INFO: [Land   ] Port Manatee, FL
06:47:56 INFO: [Land   ] St Petersburg, FL
06:47:59 INFO: [Land   ] Old Port Tampa, FL
06:48:03 INFO: [Land   ] Cedar Key, FL
06:48:06 INFO: [Land   ] Apalachicola, FL
06:48:09 INFO: [Land   ] Panama City, FL
06:48:09 INFO: [No Data] Panama City Beach, FL
06:48:12 INFO: [Land   ] Pensacola, FL
06:48:15 INFO: [Land   ] Tolomato River station
06:48:18 INFO: [Land   ] Fred Howard Park
06:48:21 INFO: [Land   ] 
06:48:21 INFO: [No Data] Big Carlos Pass
06:48:24 INFO: [Land   ] Shell Point
06:48:27 INFO: [Land   ] St Lucie Inlet station
06:48:30 INFO: [Land   ] Naples Bay station
06:48:33 INFO: [Land   ] Vero Beach station
06:48:36 INFO: [Water  ] Ponce De Leon South station
06:48:39 INFO: [Land   ] Melbourne station
06:48:42 INFO: [Land   ] Aripeka
06:48:47 INFO: [Land   ] Bing&#39;s Landing station
06:48:50 INFO: [Land   ] Binney Dock station
06:48:54 INFO: [Land   ] Gordon River Inlet station
06:48:54 INFO: Finished processing [HYCOM]: http://crow.marine.usf.edu:8080/thredds/dodsC/WFS_SWAN_NF_model/USF_Ocean_Circulation_Group_West_Florida_Shelf_Daily_SWAN_Nowcast_Forecast_Wave_Model_Data_best.ncd
06:48:54 INFO: ******* Saving to file 2014-07-07/2014-07-07-USF_ROMS.nc *******
06:48:54 INFO: [No Data] Duck, NC
06:48:54 INFO: [No Data] Oregon Inlet Marina, NC
06:48:54 INFO: [No Data] USCG Station Hatteras, NC
06:48:54 INFO: [No Data] Beaufort, NC
06:48:54 INFO: [No Data] Wilmington, NC
06:48:54 INFO: [No Data] Wrightsville Beach, NC
06:48:54 INFO: [No Data] Springmaid Pier, SC
06:48:54 INFO: [No Data] Oyster Landing (N Inlet Estuary), SC
06:48:54 INFO: [No Data] Charleston, SC
06:48:54 INFO: [No Data] Fernandina Beach, FL
06:48:54 INFO: [No Data] Mayport (Bar Pilots Dock), FL
06:48:54 INFO: [No Data] Dames Point, FL
06:48:54 INFO: [No Data] Southbank Riverwalk, St Johns River, FL
06:48:54 INFO: [No Data] I-295 Bridge, St Johns River, FL
06:48:54 INFO: [No Data] Red Bay Point, St Johns River, FL
06:48:54 INFO: [No Data] Racy Point, St Johns River, FL
06:48:54 INFO: [No Data] Trident Pier, FL
06:48:54 INFO: [No Data] Lake Worth Pier, FL
06:48:54 INFO: [No Data] Vaca Key, FL
06:48:54 INFO: [No Data] Key West, FL
06:48:55 INFO: [Water  ] Naples, FL
06:48:57 INFO: [Water  ] Fort Myers, FL
06:49:00 INFO: [Water  ] Port Manatee, FL
06:49:00 INFO: [No Data] St Petersburg, FL
06:49:01 INFO: [Water  ] Old Port Tampa, FL
06:49:05 INFO: [Water  ] Cedar Key, FL
06:49:08 INFO: [Water  ] Apalachicola, FL
06:49:11 INFO: [Water  ] Panama City, FL
06:49:14 INFO: [Water  ] Panama City Beach, FL
06:49:14 INFO: [No Data] Pensacola, FL
06:49:14 INFO: [No Data] Tolomato River station
06:49:16 INFO: [Water  ] Fred Howard Park
06:49:18 INFO: [Water  ] 
06:49:20 INFO: [Water  ] Big Carlos Pass
06:49:24 INFO: [Water  ] Shell Point
06:49:24 INFO: [No Data] St Lucie Inlet station
06:49:26 INFO: [Water  ] Naples Bay station
06:49:26 INFO: [No Data] Vero Beach station
06:49:26 INFO: [No Data] Ponce De Leon South station
06:49:26 INFO: [No Data] Melbourne station
06:49:28 INFO: [Water  ] Aripeka
06:49:28 INFO: [No Data] Bing&#39;s Landing station
06:49:28 INFO: [No Data] Binney Dock station
06:49:30 INFO: [Water  ] Gordon River Inlet station
06:49:48 INFO: Finished processing [USF_ROMS]: http://crow.marine.usf.edu:8080/thredds/dodsC/WFS_SWAN_NF_model/USF_Ocean_Circulation_Group_West_Florida_Shelf_Daily_SWAN_Nowcast_Forecast_Wave_Model_Data_best.ncd
06:49:48 INFO: ****** Saving to file 2014-07-07/2014-07-07-USF_FVCOM.nc *******
06:49:48 INFO: [No Data] Duck, NC
06:49:48 INFO: [No Data] Oregon Inlet Marina, NC
06:49:48 INFO: [No Data] USCG Station Hatteras, NC
06:49:48 INFO: [No Data] Beaufort, NC
06:49:48 INFO: [No Data] Wilmington, NC
06:49:48 INFO: [No Data] Wrightsville Beach, NC
06:49:48 INFO: [No Data] Springmaid Pier, SC
06:49:48 INFO: [No Data] Oyster Landing (N Inlet Estuary), SC
06:49:48 INFO: [No Data] Charleston, SC
06:49:48 INFO: [No Data] Fernandina Beach, FL
06:49:48 INFO: [No Data] Mayport (Bar Pilots Dock), FL
06:49:48 INFO: [No Data] Dames Point, FL
06:49:48 INFO: [No Data] Southbank Riverwalk, St Johns River, FL
06:49:48 INFO: [No Data] I-295 Bridge, St Johns River, FL
06:49:48 INFO: [No Data] Red Bay Point, St Johns River, FL
06:49:48 INFO: [No Data] Racy Point, St Johns River, FL
06:49:48 INFO: [No Data] Trident Pier, FL
06:49:48 INFO: [No Data] Lake Worth Pier, FL
06:50:14 INFO: [Water  ] Vaca Key, FL
06:50:31 INFO: [Water  ] Key West, FL
06:50:54 INFO: [Water  ] Naples, FL
06:51:12 INFO: [Water  ] Fort Myers, FL
06:51:34 INFO: [Water  ] Port Manatee, FL
06:51:47 INFO: [Water  ] St Petersburg, FL
06:52:03 INFO: [Water  ] Old Port Tampa, FL
06:52:15 INFO: [Water  ] Cedar Key, FL
06:52:28 INFO: [Water  ] Apalachicola, FL
06:52:28 INFO: [No Data] Panama City, FL
06:52:37 INFO: [Water  ] Panama City Beach, FL
06:52:37 INFO: [No Data] Pensacola, FL
06:52:37 INFO: [No Data] Tolomato River station
06:52:56 INFO: [Water  ] Fred Howard Park
06:53:01 INFO: [Water  ] 
06:53:24 INFO: [Water  ] Big Carlos Pass
06:53:37 INFO: [Water  ] Shell Point
06:53:37 INFO: [No Data] St Lucie Inlet station
06:53:47 INFO: [Water  ] Naples Bay station
06:53:47 INFO: [No Data] Vero Beach station
06:53:47 INFO: [No Data] Ponce De Leon South station
06:53:47 INFO: [No Data] Melbourne station
06:53:58 INFO: [Water  ] Aripeka
06:53:58 INFO: [No Data] Bing&#39;s Landing station
06:53:58 INFO: [No Data] Binney Dock station
06:54:12 INFO: [Water  ] Gordon River Inlet station
06:54:12 INFO: Finished processing [USF_FVCOM]: http://crow.marine.usf.edu:8080/thredds/dodsC/WFS_SWAN_NF_model/USF_Ocean_Circulation_Group_West_Florida_Shelf_Daily_SWAN_Nowcast_Forecast_Wave_Model_Data_best.ncd
06:54:12 INFO: ******* Saving to file 2014-07-07/2014-07-07-COAWST_4.nc *******
06:54:20 INFO: [Land   ] Duck, NC
06:54:31 INFO: [Water  ] Oregon Inlet Marina, NC
06:54:36 INFO: [Water  ] USCG Station Hatteras, NC
06:54:47 INFO: [Land   ] Beaufort, NC
06:54:53 INFO: [Land   ] Wilmington, NC
06:54:58 INFO: [Water  ] Wrightsville Beach, NC
06:55:09 INFO: [Water  ] Springmaid Pier, SC
06:55:14 INFO: [Land   ] Oyster Landing (N Inlet Estuary), SC
06:55:20 INFO: [Land   ] Charleston, SC
06:55:25 INFO: [Land   ] Fernandina Beach, FL
06:55:30 INFO: [Land   ] Mayport (Bar Pilots Dock), FL
06:55:36 INFO: [Land   ] Dames Point, FL
06:55:41 INFO: [Land   ] Southbank Riverwalk, St Johns River, FL
06:55:46 INFO: [Land   ] I-295 Bridge, St Johns River, FL
06:55:51 INFO: [Land   ] Red Bay Point, St Johns River, FL
06:55:57 INFO: [Land   ] Racy Point, St Johns River, FL
06:56:03 INFO: [Land   ] Trident Pier, FL
06:56:13 INFO: [Water  ] Lake Worth Pier, FL
06:56:19 INFO: [Land   ] Vaca Key, FL
06:56:30 INFO: [Water  ] Key West, FL
06:56:35 INFO: [Land   ] Naples, FL
06:56:41 INFO: [Land   ] Fort Myers, FL
06:56:46 INFO: [Land   ] Port Manatee, FL
06:56:52 INFO: [Land   ] St Petersburg, FL
06:57:03 INFO: [Water  ] Old Port Tampa, FL
06:57:13 INFO: [Water  ] Cedar Key, FL
06:57:19 INFO: [Water  ] Apalachicola, FL
06:57:24 INFO: [Water  ] Panama City, FL
06:57:34 INFO: [Land   ] Panama City Beach, FL
06:57:40 INFO: [Water  ] Pensacola, FL
06:57:45 INFO: [Land   ] Tolomato River station
06:57:50 INFO: [Land   ] Fred Howard Park
06:57:56 INFO: [Land   ] 
06:58:01 INFO: [Water  ] Big Carlos Pass
06:58:07 INFO: [Land   ] Shell Point
06:58:17 INFO: [Water  ] St Lucie Inlet station
06:58:23 INFO: [Land   ] Naples Bay station
06:58:33 INFO: [Land   ] Vero Beach station
06:58:39 INFO: [Water  ] Ponce De Leon South station
06:58:44 INFO: [Land   ] Melbourne station
06:58:50 INFO: [Land   ] Aripeka
06:58:55 INFO: [Land   ] Bing&#39;s Landing station
06:59:06 INFO: [Land   ] Binney Dock station
06:59:11 INFO: [Land   ] Gordon River Inlet station
07:00:38 INFO: Finished processing [COAWST_4]: http://crow.marine.usf.edu:8080/thredds/dodsC/WFS_SWAN_NF_model/USF_Ocean_Circulation_Group_West_Florida_Shelf_Daily_SWAN_Nowcast_Forecast_Wave_Model_Data_best.ncd
07:00:38 INFO: ******** Saving to file 2014-07-07/2014-07-07-BTMPB.nc *********
07:00:38 INFO: [No Data] Duck, NC
07:00:38 INFO: [No Data] Oregon Inlet Marina, NC
07:00:38 INFO: [No Data] USCG Station Hatteras, NC
07:00:38 INFO: [No Data] Beaufort, NC
07:00:38 INFO: [No Data] Wilmington, NC
07:00:38 INFO: [No Data] Wrightsville Beach, NC
07:00:38 INFO: [No Data] Springmaid Pier, SC
07:00:38 INFO: [No Data] Oyster Landing (N Inlet Estuary), SC
07:00:38 INFO: [No Data] Charleston, SC
07:00:38 INFO: [No Data] Fernandina Beach, FL
07:00:38 INFO: [No Data] Mayport (Bar Pilots Dock), FL
07:00:38 INFO: [No Data] Dames Point, FL
07:00:38 INFO: [No Data] Southbank Riverwalk, St Johns River, FL
07:00:38 INFO: [No Data] I-295 Bridge, St Johns River, FL
07:00:38 INFO: [No Data] Red Bay Point, St Johns River, FL
07:00:38 INFO: [No Data] Racy Point, St Johns River, FL
07:00:38 INFO: [No Data] Trident Pier, FL
07:00:38 INFO: [No Data] Lake Worth Pier, FL
07:00:38 INFO: [No Data] Vaca Key, FL
07:00:38 INFO: [No Data] Key West, FL
07:00:38 INFO: [No Data] Naples, FL
07:00:38 INFO: [No Data] Fort Myers, FL
07:00:38 INFO: [No Data] Port Manatee, FL
07:00:38 INFO: [No Data] St Petersburg, FL
07:00:38 INFO: [No Data] Old Port Tampa, FL
07:00:38 INFO: [No Data] Cedar Key, FL
07:00:38 INFO: [No Data] Apalachicola, FL
07:00:38 INFO: [No Data] Panama City, FL
07:00:38 INFO: [No Data] Panama City Beach, FL
07:00:38 INFO: [No Data] Pensacola, FL
07:00:38 INFO: [No Data] Tolomato River station
07:00:38 INFO: [No Data] Fred Howard Park
07:00:38 INFO: [No Data] 
07:00:38 INFO: [No Data] Big Carlos Pass
07:00:38 INFO: [No Data] Shell Point
07:00:38 INFO: [No Data] St Lucie Inlet station
07:00:38 INFO: [No Data] Naples Bay station
07:00:38 INFO: [No Data] Vero Beach station
07:00:38 INFO: [No Data] Ponce De Leon South station
07:00:38 INFO: [No Data] Melbourne station
07:00:38 INFO: [No Data] Aripeka
07:00:38 INFO: [No Data] Bing&#39;s Landing station
07:00:38 INFO: [No Data] Binney Dock station
07:00:38 INFO: [No Data] Gordon River Inlet station
07:00:38 INFO: Finished processing [BTMPB]: http://crow.marine.usf.edu:8080/thredds/dodsC/WFS_SWAN_NF_model/USF_Ocean_Circulation_Group_West_Florida_Shelf_Daily_SWAN_Nowcast_Forecast_Wave_Model_Data_best.ncd
07:00:38 INFO: ******* Saving to file 2014-07-07/2014-07-07-ESPRESSO.nc *******
07:00:45 INFO: [Land   ] Duck, NC
07:00:48 INFO: [Water  ] Oregon Inlet Marina, NC
07:00:50 INFO: [Land   ] USCG Station Hatteras, NC
07:00:54 INFO: [Water  ] Beaufort, NC
07:00:54 INFO: [No Data] Wilmington, NC
07:00:54 INFO: [No Data] Wrightsville Beach, NC
07:00:54 INFO: [No Data] Springmaid Pier, SC
07:00:54 INFO: [No Data] Oyster Landing (N Inlet Estuary), SC
07:00:54 INFO: [No Data] Charleston, SC
07:00:54 INFO: [No Data] Fernandina Beach, FL
07:00:54 INFO: [No Data] Mayport (Bar Pilots Dock), FL
07:00:54 INFO: [No Data] Dames Point, FL
07:00:54 INFO: [No Data] Southbank Riverwalk, St Johns River, FL
07:00:54 INFO: [No Data] I-295 Bridge, St Johns River, FL
07:00:54 INFO: [No Data] Red Bay Point, St Johns River, FL
07:00:54 INFO: [No Data] Racy Point, St Johns River, FL
07:00:54 INFO: [No Data] Trident Pier, FL
07:00:54 INFO: [No Data] Lake Worth Pier, FL
07:00:54 INFO: [No Data] Vaca Key, FL
07:00:54 INFO: [No Data] Key West, FL
07:00:54 INFO: [No Data] Naples, FL
07:00:54 INFO: [No Data] Fort Myers, FL
07:00:54 INFO: [No Data] Port Manatee, FL
07:00:54 INFO: [No Data] St Petersburg, FL
07:00:54 INFO: [No Data] Old Port Tampa, FL
07:00:54 INFO: [No Data] Cedar Key, FL
07:00:54 INFO: [No Data] Apalachicola, FL
07:00:54 INFO: [No Data] Panama City, FL
07:00:54 INFO: [No Data] Panama City Beach, FL
07:00:54 INFO: [No Data] Pensacola, FL
07:00:54 INFO: [No Data] Tolomato River station
07:00:54 INFO: [No Data] Fred Howard Park
07:00:54 INFO: [No Data] 
07:00:54 INFO: [No Data] Big Carlos Pass
07:00:54 INFO: [No Data] Shell Point
07:00:54 INFO: [No Data] St Lucie Inlet station
07:00:54 INFO: [No Data] Naples Bay station
07:00:54 INFO: [No Data] Vero Beach station
07:00:54 INFO: [No Data] Ponce De Leon South station
07:00:54 INFO: [No Data] Melbourne station
07:00:54 INFO: [No Data] Aripeka
07:00:54 INFO: [No Data] Bing&#39;s Landing station
07:00:54 INFO: [No Data] Binney Dock station
07:00:54 INFO: [No Data] Gordon River Inlet station
07:01:00 INFO: Finished processing [ESPRESSO]: http://crow.marine.usf.edu:8080/thredds/dodsC/WFS_SWAN_NF_model/USF_Ocean_Circulation_Group_West_Florida_Shelf_Daily_SWAN_Nowcast_Forecast_Wave_Model_Data_best.ncd
07:01:00 INFO: ****** Saving to file 2014-07-07/2014-07-07-ROMS_TOMS.nc *******
07:01:10 INFO: [Water  ] Duck, NC
07:01:15 INFO: [Land   ] Oregon Inlet Marina, NC
07:01:18 INFO: [Water  ] USCG Station Hatteras, NC
07:01:21 INFO: [Land   ] Beaufort, NC
07:01:25 INFO: [Land   ] Wilmington, NC
07:01:28 INFO: [Water  ] Wrightsville Beach, NC
07:01:31 INFO: [Water  ] Springmaid Pier, SC
07:01:34 INFO: [Land   ] Oyster Landing (N Inlet Estuary), SC
07:01:39 INFO: [Land   ] Charleston, SC
07:01:42 INFO: [Land   ] Fernandina Beach, FL
07:01:46 INFO: [Land   ] Mayport (Bar Pilots Dock), FL
07:01:50 INFO: [Land   ] Dames Point, FL
07:01:53 INFO: [Land   ] Southbank Riverwalk, St Johns River, FL
07:01:57 INFO: [Land   ] I-295 Bridge, St Johns River, FL
07:02:00 INFO: [Land   ] Red Bay Point, St Johns River, FL
07:02:03 INFO: [Land   ] Racy Point, St Johns River, FL
07:02:10 INFO: [Land   ] Trident Pier, FL
07:02:40 INFO: [Land   ] Lake Worth Pier, FL
07:03:06 INFO: [Land   ] Vaca Key, FL
07:03:28 INFO: [Water  ] Key West, FL
07:03:38 INFO: [Land   ] Naples, FL
07:03:41 INFO: [Land   ] Fort Myers, FL
07:03:54 INFO: [Land   ] Port Manatee, FL
07:04:08 INFO: [Land   ] St Petersburg, FL
07:04:19 INFO: [Water  ] Old Port Tampa, FL
07:04:22 INFO: [Water  ] Cedar Key, FL
07:04:26 INFO: [Land   ] Apalachicola, FL
07:04:37 INFO: [Land   ] Panama City, FL
07:04:53 INFO: [Water  ] Panama City Beach, FL
07:05:12 INFO: [Land   ] Pensacola, FL
07:05:20 INFO: [Land   ] Tolomato River station
07:05:33 INFO: [Land   ] Fred Howard Park
07:05:46 INFO: [Land   ] 
07:05:50 INFO: [Land   ] Big Carlos Pass
07:05:53 INFO: [Land   ] Shell Point
07:06:33 INFO: [Water  ] St Lucie Inlet station
07:06:58 INFO: [Land   ] Naples Bay station
07:07:05 INFO: [Land   ] Vero Beach station
07:07:08 INFO: [Land   ] Ponce De Leon South station
07:07:12 INFO: [Land   ] Melbourne station
07:07:29 INFO: [Land   ] Aripeka
07:07:39 INFO: [Land   ] Bing&#39;s Landing station
07:07:42 INFO: [Land   ] Binney Dock station
07:07:46 INFO: [Land   ] Gordon River Inlet station
07:09:12 INFO: Finished processing [ROMS_TOMS]: http://crow.marine.usf.edu:8080/thredds/dodsC/WFS_SWAN_NF_model/USF_Ocean_Circulation_Group_West_Florida_Shelf_Daily_SWAN_Nowcast_Forecast_Wave_Model_Data_best.ncd
07:09:13 WARNING: /home/filipe/miniconda/envs/SECOORA/lib/python2.7/site-packages/pandas/util/decorators.py:81: FutureWarning: the 'cols' keyword is deprecated, use 'subset' instead
  warnings.warn(msg, FutureWarning)

07:09:17 WARNING: /home/filipe/miniconda/envs/SECOORA/lib/python2.7/site-packages/numpy/core/_methods.py:59: RuntimeWarning: Mean of empty slice.
  warnings.warn("Mean of empty slice.", RuntimeWarning)

07:09:35 INFO: 41.50 minutes
07:09:35 INFO: EOF
