06:18:40 INFO: ************Saving data inside directory 2014-07-07*************
06:18:40 INFO: *********************** Run information ************************
06:18:40 INFO: Run date: 2015-08-03 21:18:40
06:18:40 INFO: Download start: 2014-07-01 12:00:00
06:18:40 INFO: Download stop: 2014-07-07 12:00:00
06:18:40 INFO: Bounding box: -87.40, 24.25,-74.70, 36.70
06:18:40 INFO: *********************** Software version ***********************
06:18:40 INFO: Iris version: 1.8.1
06:18:40 INFO: owslib version: 0.9.0
06:18:40 INFO: pyoos version: 0.6.2
06:18:45 INFO: ********************* Catalog information **********************
06:18:45 INFO: URL: http://www.ngdc.noaa.gov/geoportal/csw
06:18:45 INFO: CSW version: 2.0.2
06:18:45 INFO: Number of datasets available: 23
06:18:45 INFO: ***************************** CSW ******************************
06:18:45 INFO: USF FVCOM - Nowcast Aggregation
06:18:45 INFO: ROMS/TOMS 3.0 - New Floria Shelf Application
06:18:45 INFO: ROMS/TOMS 3.0 - South-Atlantic Bight and Gulf of Mexico
06:18:45 INFO: COAWST Forecast System : USGS : US East Coast and Gulf of Mexico (Experimental)
06:18:45 INFO: ROMS ESPRESSO Real-Time Operational IS4DVAR Forecast System Version 2 (NEW) 2013-present FMRC History (Best)
06:18:45 INFO: Barotropic Tide Model for the Pacific Basin
06:18:45 INFO: HYbrid Coordinate Ocean Model (HYCOM): Global
06:18:45 INFO: ESTOFS Storm Surge Model - Atlantic - v1.0.0 - NOAA - NCEP - ADCIRC
06:18:45 INFO: usf.apk.ngwlms
06:18:45 INFO: usf.bcp.ngwlms
06:18:45 INFO: usf.fhp.ngwlms
06:18:45 INFO: usf.shp.ngwlms
06:18:45 INFO: usf.tas.ngwlms
06:18:45 INFO: fldep.bingslanding.
06:18:45 INFO: fldep.binneydock.
06:18:45 INFO: fldep.gordonriverinlet.
06:18:45 INFO: fldep.melbourne.
06:18:45 INFO: fldep.naplesbay.
06:18:45 INFO: fldep.poncedeleonsouth.
06:18:45 INFO: fldep.redbaypoint.
06:18:45 INFO: fldep.stlucieinlet.
06:18:45 INFO: fldep.tolomatoriver.
06:18:45 INFO: fldep.verobeach.
06:18:45 INFO: ***************************** SOS ******************************
06:18:45 INFO: http://tds.secoora.org/thredds/sos/fldep.bingslanding..nc?service=SOS&version=1.0.0&request=GetCapabilities
06:18:45 INFO: http://tds.secoora.org/thredds/sos/fldep.binneydock..nc?service=SOS&version=1.0.0&request=GetCapabilities
06:18:45 INFO: http://tds.secoora.org/thredds/sos/fldep.gordonriverinlet..nc?service=SOS&version=1.0.0&request=GetCapabilities
06:18:45 INFO: http://tds.secoora.org/thredds/sos/fldep.melbourne..nc?service=SOS&version=1.0.0&request=GetCapabilities
06:18:45 INFO: http://tds.secoora.org/thredds/sos/fldep.naplesbay..nc?service=SOS&version=1.0.0&request=GetCapabilities
06:18:45 INFO: http://tds.secoora.org/thredds/sos/fldep.poncedeleonsouth..nc?service=SOS&version=1.0.0&request=GetCapabilities
06:18:45 INFO: http://tds.secoora.org/thredds/sos/fldep.redbaypoint..nc?service=SOS&version=1.0.0&request=GetCapabilities
06:18:45 INFO: http://tds.secoora.org/thredds/sos/fldep.stlucieinlet..nc?service=SOS&version=1.0.0&request=GetCapabilities
06:18:45 INFO: http://tds.secoora.org/thredds/sos/fldep.tolomatoriver..nc?service=SOS&version=1.0.0&request=GetCapabilities
06:18:45 INFO: http://tds.secoora.org/thredds/sos/fldep.verobeach..nc?service=SOS&version=1.0.0&request=GetCapabilities
06:18:45 INFO: http://tds.secoora.org/thredds/sos/usf.apk.ngwlms.nc?service=SOS&version=1.0.0&request=GetCapabilities
06:18:45 INFO: http://tds.secoora.org/thredds/sos/usf.bcp.ngwlms.nc?service=SOS&version=1.0.0&request=GetCapabilities
06:18:45 INFO: http://tds.secoora.org/thredds/sos/usf.fhp.ngwlms.nc?service=SOS&version=1.0.0&request=GetCapabilities
06:18:45 INFO: http://tds.secoora.org/thredds/sos/usf.shp.ngwlms.nc?service=SOS&version=1.0.0&request=GetCapabilities
06:18:45 INFO: http://tds.secoora.org/thredds/sos/usf.tas.ngwlms.nc?service=SOS&version=1.0.0&request=GetCapabilities
06:18:45 INFO: ***************************** DAP ******************************
06:18:45 INFO: http://crow.marine.usf.edu:8080/thredds/dodsC/FVCOM-Nowcast-Agg.nc.html
06:18:45 INFO: http://crow.marine.usf.edu:8080/thredds/dodsC/WFS_ROMS_NF_model/USF_Ocean_Circulation_Group_West_Florida_Shelf_Daily_ROMS_Nowcast_Forecast_Model_Data_best.ncd.html
06:18:45 INFO: http://geoport-dev.whoi.edu/thredds/dodsC/estofs/atlantic.html
06:18:45 INFO: http://geoport.whoi.edu/thredds/dodsC/coawst_4/use/fmrc/coawst_4_use_best.ncd.html
06:18:45 INFO: http://omgsrv1.meas.ncsu.edu:8080/thredds/dodsC/fmrc/sabgom/SABGOM_Forecast_Model_Run_Collection_best.ncd.html
06:18:45 INFO: http://oos.soest.hawaii.edu/thredds/dodsC/hioos/tide_pac.html
06:18:45 INFO: http://oos.soest.hawaii.edu/thredds/dodsC/pacioos/hycom/global.html
06:18:45 INFO: http://tds.marine.rutgers.edu/thredds/dodsC/roms/espresso/2013_da/his_Best/ESPRESSO_Real-Time_v2_History_Best_Available_best.ncd.html
06:18:45 INFO: http://tds.secoora.org/thredds/dodsC/fldep.bingslanding..nc.html
06:18:45 INFO: http://tds.secoora.org/thredds/dodsC/fldep.binneydock..nc.html
06:18:45 INFO: http://tds.secoora.org/thredds/dodsC/fldep.gordonriverinlet..nc.html
06:18:45 INFO: http://tds.secoora.org/thredds/dodsC/fldep.melbourne..nc.html
06:18:45 INFO: http://tds.secoora.org/thredds/dodsC/fldep.naplesbay..nc.html
06:18:45 INFO: http://tds.secoora.org/thredds/dodsC/fldep.poncedeleonsouth..nc.html
06:18:45 INFO: http://tds.secoora.org/thredds/dodsC/fldep.redbaypoint..nc.html
06:18:45 INFO: http://tds.secoora.org/thredds/dodsC/fldep.stlucieinlet..nc.html
06:18:45 INFO: http://tds.secoora.org/thredds/dodsC/fldep.tolomatoriver..nc.html
06:18:45 INFO: http://tds.secoora.org/thredds/dodsC/fldep.verobeach..nc.html
06:18:45 INFO: http://tds.secoora.org/thredds/dodsC/usf.apk.ngwlms.nc.html
06:18:45 INFO: http://tds.secoora.org/thredds/dodsC/usf.bcp.ngwlms.nc.html
06:18:45 INFO: http://tds.secoora.org/thredds/dodsC/usf.fhp.ngwlms.nc.html
06:18:45 INFO: http://tds.secoora.org/thredds/dodsC/usf.shp.ngwlms.nc.html
06:18:45 INFO: http://tds.secoora.org/thredds/dodsC/usf.tas.ngwlms.nc.html
06:18:49 WARNING: Could not access URL http://geoport-dev.whoi.edu/thredds/dodsC/estofs/atlantic. RuntimeError(u'NetCDF: Malformed or inaccessible DAP DDS',)
06:19:58 INFO: ************************* Filtered DAP *************************
06:19:58 INFO: http://crow.marine.usf.edu:8080/thredds/dodsC/FVCOM-Nowcast-Agg.nc.html
06:19:58 INFO: http://crow.marine.usf.edu:8080/thredds/dodsC/WFS_ROMS_NF_model/USF_Ocean_Circulation_Group_West_Florida_Shelf_Daily_ROMS_Nowcast_Forecast_Model_Data_best.ncd.html
06:19:58 INFO: http://geoport.whoi.edu/thredds/dodsC/coawst_4/use/fmrc/coawst_4_use_best.ncd.html
06:19:58 INFO: http://omgsrv1.meas.ncsu.edu:8080/thredds/dodsC/fmrc/sabgom/SABGOM_Forecast_Model_Run_Collection_best.ncd.html
06:19:58 INFO: http://oos.soest.hawaii.edu/thredds/dodsC/hioos/tide_pac.html
06:19:58 INFO: http://oos.soest.hawaii.edu/thredds/dodsC/pacioos/hycom/global.html
06:19:58 INFO: http://tds.marine.rutgers.edu/thredds/dodsC/roms/espresso/2013_da/his_Best/ESPRESSO_Real-Time_v2_History_Best_Available_best.ncd.html
06:19:58 WARNING: USEAST not in the NGDC csw
06:19:58 WARNING: USF_SWAN not in the NGDC csw
06:20:06 WARNING: Cannot get cube for: http://129.252.139.124/thredds/dodsC/fit.sispnj.met.nc
Cannot find ['sea_surface_height', 'sea_surface_elevation', 'sea_surface_height_above_geoid', 'sea_surface_height_above_sea_level', 'water_surface_height_above_reference_datum', 'sea_surface_height_above_reference_ellipsoid'] in http://129.252.139.124/thredds/dodsC/fit.sispnj.met.nc.
06:20:13 WARNING: Cannot get cube for: http://129.252.139.124/thredds/dodsC/usf.nfb.ngwlms.nc
Cannot find ['sea_surface_height', 'sea_surface_elevation', 'sea_surface_height_above_geoid', 'sea_surface_height_above_sea_level', 'water_surface_height_above_reference_datum', 'sea_surface_height_above_reference_ellipsoid'] in http://129.252.139.124/thredds/dodsC/usf.nfb.ngwlms.nc.
06:20:30 WARNING: Cannot get cube for: http://129.252.139.124/thredds/dodsC/usf.c21.weatherpak.nc
Cannot find ['sea_surface_height', 'sea_surface_elevation', 'sea_surface_height_above_geoid', 'sea_surface_height_above_sea_level', 'water_surface_height_above_reference_datum', 'sea_surface_height_above_reference_ellipsoid'] in http://129.252.139.124/thredds/dodsC/usf.c21.weatherpak.nc.
06:20:57 WARNING: Cannot get cube for: http://129.252.139.124/thredds/dodsC/usf.c10.mcat.nc
Cannot find ['sea_surface_height', 'sea_surface_elevation', 'sea_surface_height_above_geoid', 'sea_surface_height_above_sea_level', 'water_surface_height_above_reference_datum', 'sea_surface_height_above_reference_ellipsoid'] in http://129.252.139.124/thredds/dodsC/usf.c10.mcat.nc.
06:21:08 WARNING: Cannot get cube for: http://129.252.139.124/thredds/dodsC/c10_salinity_water_temp.nc
Cannot find ['sea_surface_height', 'sea_surface_elevation', 'sea_surface_height_above_geoid', 'sea_surface_height_above_sea_level', 'water_surface_height_above_reference_datum', 'sea_surface_height_above_reference_ellipsoid'] in http://129.252.139.124/thredds/dodsC/c10_salinity_water_temp.nc.
06:21:22 WARNING: Cannot get cube for: http://129.252.139.124/thredds/dodsC/QC_C10_Temp_full.nc
Cannot find ['sea_surface_height', 'sea_surface_elevation', 'sea_surface_height_above_geoid', 'sea_surface_height_above_sea_level', 'water_surface_height_above_reference_datum', 'sea_surface_height_above_reference_ellipsoid'] in http://129.252.139.124/thredds/dodsC/QC_C10_Temp_full.nc.
06:21:30 WARNING: Cannot get cube for: http://129.252.139.124/thredds/dodsC/QC_C10_Sal_full.nc
Cannot find ['sea_surface_height', 'sea_surface_elevation', 'sea_surface_height_above_geoid', 'sea_surface_height_above_sea_level', 'water_surface_height_above_reference_datum', 'sea_surface_height_above_reference_ellipsoid'] in http://129.252.139.124/thredds/dodsC/QC_C10_Sal_full.nc.
06:21:37 WARNING: Cannot get cube for: http://129.252.139.124/thredds/dodsC/usf.c12.mcat.nc
Cannot find ['sea_surface_height', 'sea_surface_elevation', 'sea_surface_height_above_geoid', 'sea_surface_height_above_sea_level', 'water_surface_height_above_reference_datum', 'sea_surface_height_above_reference_ellipsoid'] in http://129.252.139.124/thredds/dodsC/usf.c12.mcat.nc.
06:21:42 WARNING: Cannot get cube for: http://129.252.139.124/thredds/dodsC/usf.c13.mcat.nc
Cannot find ['sea_surface_height', 'sea_surface_elevation', 'sea_surface_height_above_geoid', 'sea_surface_height_above_sea_level', 'water_surface_height_above_reference_datum', 'sea_surface_height_above_reference_ellipsoid'] in http://129.252.139.124/thredds/dodsC/usf.c13.mcat.nc.
06:21:48 WARNING: Cannot get cube for: http://129.252.139.124/thredds/dodsC/usf.c10.mcat_2011.nc
Cannot find ['sea_surface_height', 'sea_surface_elevation', 'sea_surface_height_above_geoid', 'sea_surface_height_above_sea_level', 'water_surface_height_above_reference_datum', 'sea_surface_height_above_reference_ellipsoid'] in http://129.252.139.124/thredds/dodsC/usf.c10.mcat_2011.nc.
06:21:53 WARNING: Cannot get cube for: http://129.252.139.124/thredds/dodsC/usf.c12.mcat_2011.nc
Cannot find ['sea_surface_height', 'sea_surface_elevation', 'sea_surface_height_above_geoid', 'sea_surface_height_above_sea_level', 'water_surface_height_above_reference_datum', 'sea_surface_height_above_reference_ellipsoid'] in http://129.252.139.124/thredds/dodsC/usf.c12.mcat_2011.nc.
06:21:58 WARNING: Cannot get cube for: http://129.252.139.124/thredds/dodsC/usf.c13.mcat_2011.nc
Cannot find ['sea_surface_height', 'sea_surface_elevation', 'sea_surface_height_above_geoid', 'sea_surface_height_above_sea_level', 'water_surface_height_above_reference_datum', 'sea_surface_height_above_reference_ellipsoid'] in http://129.252.139.124/thredds/dodsC/usf.c13.mcat_2011.nc.
06:22:04 WARNING: Cannot get cube for: http://129.252.139.124/thredds/dodsC/carocoops.sun2.buoy.nc
Cannot find ['sea_surface_height', 'sea_surface_elevation', 'sea_surface_height_above_geoid', 'sea_surface_height_above_sea_level', 'water_surface_height_above_reference_datum', 'sea_surface_height_above_reference_ellipsoid'] in http://129.252.139.124/thredds/dodsC/carocoops.sun2.buoy.nc.
06:22:11 WARNING: Cannot get cube for: http://129.252.139.124/thredds/dodsC/carocoops.frp2.buoy.nc
Cannot find ['sea_surface_height', 'sea_surface_elevation', 'sea_surface_height_above_geoid', 'sea_surface_height_above_sea_level', 'water_surface_height_above_reference_datum', 'sea_surface_height_above_reference_ellipsoid'] in http://129.252.139.124/thredds/dodsC/carocoops.frp2.buoy.nc.
06:22:21 WARNING: Cannot get cube for: http://129.252.139.124/thredds/dodsC/carocoops.cap2.buoy.nc
Cannot find ['sea_surface_height', 'sea_surface_elevation', 'sea_surface_height_above_geoid', 'sea_surface_height_above_sea_level', 'water_surface_height_above_reference_datum', 'sea_surface_height_above_reference_ellipsoid'] in http://129.252.139.124/thredds/dodsC/carocoops.cap2.buoy.nc.
06:22:32 WARNING: Cannot get cube for: http://129.252.139.124/thredds/dodsC/cormp.ilm3.buoy.nc
Cannot find ['sea_surface_height', 'sea_surface_elevation', 'sea_surface_height_above_geoid', 'sea_surface_height_above_sea_level', 'water_surface_height_above_reference_datum', 'sea_surface_height_above_reference_ellipsoid'] in http://129.252.139.124/thredds/dodsC/cormp.ilm3.buoy.nc.
06:22:57 WARNING: Cannot get cube for: http://129.252.139.124/thredds/dodsC/cormp.ilm2.buoy.nc
Cannot find ['sea_surface_height', 'sea_surface_elevation', 'sea_surface_height_above_geoid', 'sea_surface_height_above_sea_level', 'water_surface_height_above_reference_datum', 'sea_surface_height_above_reference_ellipsoid'] in http://129.252.139.124/thredds/dodsC/cormp.ilm2.buoy.nc.
06:23:06 WARNING: Cannot get cube for: http://129.252.139.124/thredds/dodsC/cormp.ilm1.buoy.nc
Cannot find ['sea_surface_height', 'sea_surface_elevation', 'sea_surface_height_above_geoid', 'sea_surface_height_above_sea_level', 'water_surface_height_above_reference_datum', 'sea_surface_height_above_reference_ellipsoid'] in http://129.252.139.124/thredds/dodsC/cormp.ilm1.buoy.nc.
06:23:33 WARNING: Cannot get cube for: http://129.252.139.124/thredds/dodsC/cormp.lej3.buoy.nc
Cannot find ['sea_surface_height', 'sea_surface_elevation', 'sea_surface_height_above_geoid', 'sea_surface_height_above_sea_level', 'water_surface_height_above_reference_datum', 'sea_surface_height_above_reference_ellipsoid'] in http://129.252.139.124/thredds/dodsC/cormp.lej3.buoy.nc.
06:23:57 WARNING: Cannot get cube for: http://129.252.139.124/thredds/dodsC/sccf.gulfofmexico.wq.nc
Cannot find ['sea_surface_height', 'sea_surface_elevation', 'sea_surface_height_above_geoid', 'sea_surface_height_above_sea_level', 'water_surface_height_above_reference_datum', 'sea_surface_height_above_reference_ellipsoid'] in http://129.252.139.124/thredds/dodsC/sccf.gulfofmexico.wq.nc.
06:24:08 WARNING: Cannot get cube for: http://129.252.139.124/thredds/dodsC/sccf.shellpoint.wq.nc
Cannot find ['sea_surface_height', 'sea_surface_elevation', 'sea_surface_height_above_geoid', 'sea_surface_height_above_sea_level', 'water_surface_height_above_reference_datum', 'sea_surface_height_above_reference_ellipsoid'] in http://129.252.139.124/thredds/dodsC/sccf.shellpoint.wq.nc.
06:24:16 WARNING: Cannot get cube for: http://129.252.139.124/thredds/dodsC/sccf.redfishpass.wq.nc
Cannot find ['sea_surface_height', 'sea_surface_elevation', 'sea_surface_height_above_geoid', 'sea_surface_height_above_sea_level', 'water_surface_height_above_reference_datum', 'sea_surface_height_above_reference_ellipsoid'] in http://129.252.139.124/thredds/dodsC/sccf.redfishpass.wq.nc.
06:24:28 WARNING: Cannot get cube for: http://129.252.139.124/thredds/dodsC/sccf.tarponbay.wq.nc
Cannot find ['sea_surface_height', 'sea_surface_elevation', 'sea_surface_height_above_geoid', 'sea_surface_height_above_sea_level', 'water_surface_height_above_reference_datum', 'sea_surface_height_above_reference_ellipsoid'] in http://129.252.139.124/thredds/dodsC/sccf.tarponbay.wq.nc.
06:24:39 WARNING: Cannot get cube for: http://129.252.139.124/thredds/dodsC/sccf.fortmyers.wq.nc
Cannot find ['sea_surface_height', 'sea_surface_elevation', 'sea_surface_height_above_geoid', 'sea_surface_height_above_sea_level', 'water_surface_height_above_reference_datum', 'sea_surface_height_above_reference_ellipsoid'] in http://129.252.139.124/thredds/dodsC/sccf.fortmyers.wq.nc.
06:25:27 WARNING: Cannot get cube for: http://129.252.139.124/thredds/dodsC/fldep.redbaypoint..nc
istart must be different from istop! Got istart 43 and  istop 43
06:26:47 WARNING: Cannot get cube for: http://129.252.139.124/thredds/dodsC/lbhmc.2ndave.pier.nc
Cannot find ['sea_surface_height', 'sea_surface_elevation', 'sea_surface_height_above_geoid', 'sea_surface_height_above_sea_level', 'water_surface_height_above_reference_datum', 'sea_surface_height_above_reference_ellipsoid'] in http://129.252.139.124/thredds/dodsC/lbhmc.2ndave.pier.nc.
06:26:58 WARNING: Cannot get cube for: http://129.252.139.124/thredds/dodsC/lbhmc.cherrygrove.pier.nc
Cannot find ['sea_surface_height', 'sea_surface_elevation', 'sea_surface_height_above_geoid', 'sea_surface_height_above_sea_level', 'water_surface_height_above_reference_datum', 'sea_surface_height_above_reference_ellipsoid'] in http://129.252.139.124/thredds/dodsC/lbhmc.cherrygrove.pier.nc.
06:27:08 WARNING: Cannot get cube for: http://129.252.139.124/thredds/dodsC/lbhmc.apachepier.pier.nc
Cannot find ['sea_surface_height', 'sea_surface_elevation', 'sea_surface_height_above_geoid', 'sea_surface_height_above_sea_level', 'water_surface_height_above_reference_datum', 'sea_surface_height_above_reference_ellipsoid'] in http://129.252.139.124/thredds/dodsC/lbhmc.apachepier.pier.nc.
06:27:15 WARNING: Cannot get cube for: http://129.252.139.124/thredds/dodsC/enp.wiwf1.met.nc
Cannot find ['sea_surface_height', 'sea_surface_elevation', 'sea_surface_height_above_geoid', 'sea_surface_height_above_sea_level', 'water_surface_height_above_reference_datum', 'sea_surface_height_above_reference_ellipsoid'] in http://129.252.139.124/thredds/dodsC/enp.wiwf1.met.nc.
06:27:21 WARNING: Cannot get cube for: http://129.252.139.124/thredds/dodsC/enp.lbrf1.met.nc
Cannot find ['sea_surface_height', 'sea_surface_elevation', 'sea_surface_height_above_geoid', 'sea_surface_height_above_sea_level', 'water_surface_height_above_reference_datum', 'sea_surface_height_above_reference_ellipsoid'] in http://129.252.139.124/thredds/dodsC/enp.lbrf1.met.nc.
06:27:28 WARNING: Cannot get cube for: http://129.252.139.124/thredds/dodsC/enp.bobf1.met.nc
Cannot find ['sea_surface_height', 'sea_surface_elevation', 'sea_surface_height_above_geoid', 'sea_surface_height_above_sea_level', 'water_surface_height_above_reference_datum', 'sea_surface_height_above_reference_ellipsoid'] in http://129.252.139.124/thredds/dodsC/enp.bobf1.met.nc.
06:27:35 WARNING: Cannot get cube for: http://129.252.139.124/thredds/dodsC/enp.trrf1.met.nc
Cannot find ['sea_surface_height', 'sea_surface_elevation', 'sea_surface_height_above_geoid', 'sea_surface_height_above_sea_level', 'water_surface_height_above_reference_datum', 'sea_surface_height_above_reference_ellipsoid'] in http://129.252.139.124/thredds/dodsC/enp.trrf1.met.nc.
06:27:42 WARNING: Cannot get cube for: http://129.252.139.124/thredds/dodsC/enp.wwef1.met.nc
Cannot find ['sea_surface_height', 'sea_surface_elevation', 'sea_surface_height_above_geoid', 'sea_surface_height_above_sea_level', 'water_surface_height_above_reference_datum', 'sea_surface_height_above_reference_ellipsoid'] in http://129.252.139.124/thredds/dodsC/enp.wwef1.met.nc.
06:27:48 WARNING: Cannot get cube for: http://129.252.139.124/thredds/dodsC/enp.lrif1.met.nc
Cannot find ['sea_surface_height', 'sea_surface_elevation', 'sea_surface_height_above_geoid', 'sea_surface_height_above_sea_level', 'water_surface_height_above_reference_datum', 'sea_surface_height_above_reference_ellipsoid'] in http://129.252.139.124/thredds/dodsC/enp.lrif1.met.nc.
06:27:54 WARNING: Cannot get cube for: http://129.252.139.124/thredds/dodsC/enp.bwsf1.met.nc
Cannot find ['sea_surface_height', 'sea_surface_elevation', 'sea_surface_height_above_geoid', 'sea_surface_height_above_sea_level', 'water_surface_height_above_reference_datum', 'sea_surface_height_above_reference_ellipsoid'] in http://129.252.139.124/thredds/dodsC/enp.bwsf1.met.nc.
06:28:00 WARNING: Cannot get cube for: http://129.252.139.124/thredds/dodsC/enp.pkyf1.met.nc
Cannot find ['sea_surface_height', 'sea_surface_elevation', 'sea_surface_height_above_geoid', 'sea_surface_height_above_sea_level', 'water_surface_height_above_reference_datum', 'sea_surface_height_above_reference_ellipsoid'] in http://129.252.139.124/thredds/dodsC/enp.pkyf1.met.nc.
06:28:08 WARNING: Cannot get cube for: http://129.252.139.124/thredds/dodsC/enp.lmdf1.met.nc
Cannot find ['sea_surface_height', 'sea_surface_elevation', 'sea_surface_height_above_geoid', 'sea_surface_height_above_sea_level', 'water_surface_height_above_reference_datum', 'sea_surface_height_above_reference_ellipsoid'] in http://129.252.139.124/thredds/dodsC/enp.lmdf1.met.nc.
06:28:14 WARNING: Cannot get cube for: http://129.252.139.124/thredds/dodsC/enp.cnbf1.met.nc
Cannot find ['sea_surface_height', 'sea_surface_elevation', 'sea_surface_height_above_geoid', 'sea_surface_height_above_sea_level', 'water_surface_height_above_reference_datum', 'sea_surface_height_above_reference_ellipsoid'] in http://129.252.139.124/thredds/dodsC/enp.cnbf1.met.nc.
06:28:21 WARNING: Cannot get cube for: http://129.252.139.124/thredds/dodsC/enp.hcef1.met.nc
Cannot find ['sea_surface_height', 'sea_surface_elevation', 'sea_surface_height_above_geoid', 'sea_surface_height_above_sea_level', 'water_surface_height_above_reference_datum', 'sea_surface_height_above_reference_ellipsoid'] in http://129.252.139.124/thredds/dodsC/enp.hcef1.met.nc.
06:28:28 WARNING: Cannot get cube for: http://129.252.139.124/thredds/dodsC/enp.jkyf1.met.nc
Cannot find ['sea_surface_height', 'sea_surface_elevation', 'sea_surface_height_above_geoid', 'sea_surface_height_above_sea_level', 'water_surface_height_above_reference_datum', 'sea_surface_height_above_reference_ellipsoid'] in http://129.252.139.124/thredds/dodsC/enp.jkyf1.met.nc.
06:28:34 WARNING: Cannot get cube for: http://129.252.139.124/thredds/dodsC/enp.wrbf1.met.nc
Cannot find ['sea_surface_height', 'sea_surface_elevation', 'sea_surface_height_above_geoid', 'sea_surface_height_above_sea_level', 'water_surface_height_above_reference_datum', 'sea_surface_height_above_reference_ellipsoid'] in http://129.252.139.124/thredds/dodsC/enp.wrbf1.met.nc.
06:28:41 WARNING: Cannot get cube for: http://129.252.139.124/thredds/dodsC/enp.gbif1.met.nc
Cannot find ['sea_surface_height', 'sea_surface_elevation', 'sea_surface_height_above_geoid', 'sea_surface_height_above_sea_level', 'water_surface_height_above_reference_datum', 'sea_surface_height_above_reference_ellipsoid'] in http://129.252.139.124/thredds/dodsC/enp.gbif1.met.nc.
06:28:50 WARNING: Cannot get cube for: http://129.252.139.124/thredds/dodsC/enp.ppta1.met.nc
Cannot find ['sea_surface_height', 'sea_surface_elevation', 'sea_surface_height_above_geoid', 'sea_surface_height_above_sea_level', 'water_surface_height_above_reference_datum', 'sea_surface_height_above_reference_ellipsoid'] in http://129.252.139.124/thredds/dodsC/enp.ppta1.met.nc.
06:28:57 WARNING: Cannot get cube for: http://129.252.139.124/thredds/dodsC/enp.bdvf1.met.nc
Cannot find ['sea_surface_height', 'sea_surface_elevation', 'sea_surface_height_above_geoid', 'sea_surface_height_above_sea_level', 'water_surface_height_above_reference_datum', 'sea_surface_height_above_reference_ellipsoid'] in http://129.252.139.124/thredds/dodsC/enp.bdvf1.met.nc.
06:29:04 WARNING: Cannot get cube for: http://129.252.139.124/thredds/dodsC/enp.lrkf1.met.nc
Cannot find ['sea_surface_height', 'sea_surface_elevation', 'sea_surface_height_above_geoid', 'sea_surface_height_above_sea_level', 'water_surface_height_above_reference_datum', 'sea_surface_height_above_reference_ellipsoid'] in http://129.252.139.124/thredds/dodsC/enp.lrkf1.met.nc.
06:29:11 WARNING: Cannot get cube for: http://129.252.139.124/thredds/dodsC/enp.bnkf1.met.nc
Cannot find ['sea_surface_height', 'sea_surface_elevation', 'sea_surface_height_above_geoid', 'sea_surface_height_above_sea_level', 'water_surface_height_above_reference_datum', 'sea_surface_height_above_reference_ellipsoid'] in http://129.252.139.124/thredds/dodsC/enp.bnkf1.met.nc.
06:29:18 WARNING: Cannot get cube for: http://129.252.139.124/thredds/dodsC/enp.gbtf1.met.nc
Cannot find ['sea_surface_height', 'sea_surface_elevation', 'sea_surface_height_above_geoid', 'sea_surface_height_above_sea_level', 'water_surface_height_above_reference_datum', 'sea_surface_height_above_reference_ellipsoid'] in http://129.252.139.124/thredds/dodsC/enp.gbtf1.met.nc.
06:29:27 WARNING: Cannot get cube for: http://129.252.139.124/thredds/dodsC/enp.tcvf1.met.nc
Cannot find ['sea_surface_height', 'sea_surface_elevation', 'sea_surface_height_above_geoid', 'sea_surface_height_above_sea_level', 'water_surface_height_above_reference_datum', 'sea_surface_height_above_reference_ellipsoid'] in http://129.252.139.124/thredds/dodsC/enp.tcvf1.met.nc.
06:29:35 WARNING: Cannot get cube for: http://129.252.139.124/thredds/dodsC/enp.canf1.met.nc
Cannot find ['sea_surface_height', 'sea_surface_elevation', 'sea_surface_height_above_geoid', 'sea_surface_height_above_sea_level', 'water_surface_height_above_reference_datum', 'sea_surface_height_above_reference_ellipsoid'] in http://129.252.139.124/thredds/dodsC/enp.canf1.met.nc.
06:29:44 WARNING: Cannot get cube for: http://129.252.139.124/thredds/dodsC/enp.lbsf1.met.nc
Cannot find ['sea_surface_height', 'sea_surface_elevation', 'sea_surface_height_above_geoid', 'sea_surface_height_above_sea_level', 'water_surface_height_above_reference_datum', 'sea_surface_height_above_reference_ellipsoid'] in http://129.252.139.124/thredds/dodsC/enp.lbsf1.met.nc.
06:29:56 WARNING: Cannot get cube for: http://129.252.139.124/thredds/dodsC/enp.mukf1.met.nc
Cannot find ['sea_surface_height', 'sea_surface_elevation', 'sea_surface_height_above_geoid', 'sea_surface_height_above_sea_level', 'water_surface_height_above_reference_datum', 'sea_surface_height_above_reference_ellipsoid'] in http://129.252.139.124/thredds/dodsC/enp.mukf1.met.nc.
06:30:04 WARNING: Cannot get cube for: http://129.252.139.124/thredds/dodsC/enp.dkkf1.met.nc
Cannot find ['sea_surface_height', 'sea_surface_elevation', 'sea_surface_height_above_geoid', 'sea_surface_height_above_sea_level', 'water_surface_height_above_reference_datum', 'sea_surface_height_above_reference_ellipsoid'] in http://129.252.139.124/thredds/dodsC/enp.dkkf1.met.nc.
06:30:10 WARNING: Cannot get cube for: http://129.252.139.124/thredds/dodsC/enp.cwaf1.met.nc
Cannot find ['sea_surface_height', 'sea_surface_elevation', 'sea_surface_height_above_geoid', 'sea_surface_height_above_sea_level', 'water_surface_height_above_reference_datum', 'sea_surface_height_above_reference_ellipsoid'] in http://129.252.139.124/thredds/dodsC/enp.cwaf1.met.nc.
06:30:26 WARNING: Cannot get cube for: http://129.252.139.124/thredds/dodsC/fau.lobo.1.nc
Cannot find ['sea_surface_height', 'sea_surface_elevation', 'sea_surface_height_above_geoid', 'sea_surface_height_above_sea_level', 'water_surface_height_above_reference_datum', 'sea_surface_height_above_reference_ellipsoid'] in http://129.252.139.124/thredds/dodsC/fau.lobo.1.nc.
06:30:33 INFO: ********************* Collector offerings **********************
06:30:33 INFO: NOAA.NOS.CO-OPS SOS: 1048 offerings
06:30:39 INFO: SOS URL request: http://opendap.co-ops.nos.noaa.gov/ioos-dif-sos/SOS?eventTime=2014-07-01T12%3A00%3A00Z&service=SOS&offering=urn%3Aioos%3Anetwork%3ANOAA.NOS.CO-OPS%3AWaterLevelActive&request=GetObservation&version=1.0.0&responseFormat=text%2Fcsv&featureOfInterest=BBOX%3A-87.4%2C24.25%2C-74.7%2C36.7&observedProperty=water_surface_height_above_reference_datum
06:32:45 INFO: ************************* Observations *************************
06:32:45 INFO: ********** Downloading to file 2014-07-07/config.pkl ***********
06:32:55 WARNING: [8654467] USCG Station Hatteras, NC:
'Wrong Datum for this station: The correct Datum values are: MHHW, MHW, MTL, MSL, MLW, MLLW, STND'
06:33:00 WARNING: [8656483] Beaufort, NC:
'Wrong Datum for this station: The correct Datum values are: MHHW, MHW, MTL, MSL, MLW, MLLW, STND'
06:33:03 WARNING: [8658120] Wilmington, NC:
'Wrong Datum for this station: The correct Datum values are: MHHW, MHW, MTL, MSL, MLW, MLLW, STND'
06:34:27 WARNING: [8726520] St Petersburg, FL:
'Wrong Datum for this station: The correct Datum values are: MHHW, MHW, MTL, MSL, MLW, MLLW, STND'
06:34:30 WARNING: [8726607] Old Port Tampa, FL:
'Wrong Datum for this station: The correct Datum values are: MHHW, MHW, MTL, MSL, MLW, MLLW, STND'
06:34:45 WARNING: [8729210] Panama City Beach, FL:
'Wrong Datum for this station: The correct Datum values are: MHHW, MHW, MTL, MSL, MLW, MLLW, STND'
06:34:52 WARNING: /home/filipe/miniconda/envs/SECOORA/lib/python2.7/site-packages/iris/fileformats/netcdf.py:1783: UserWarning: NetCDF default saving behaviour currently assigns the outermost dimensions to unlimited. This behaviour is to be deprecated, in favour of no automatic assignment. To switch to the new behaviour, set iris.FUTURE.netcdf_no_unlimited to True.
  warnings.warn(msg)

06:34:52 INFO: ********************* SECOORA Observations *********************
06:34:52 INFO:  Downloading to file 2014-07-07/2014-07-07-SECOORA_OBS_DATA.nc *
06:34:52 INFO: **************************** Models ****************************
06:34:52 INFO: 
[Reading url 1/9]: http://crow.marine.usf.edu:8080/thredds/dodsC/FVCOM-Nowcast-Agg.nc
06:35:15 INFO: 
[Reading url 2/9]: http://crow.marine.usf.edu:8080/thredds/dodsC/WFS_ROMS_NF_model/USF_Ocean_Circulation_Group_West_Florida_Shelf_Daily_ROMS_Nowcast_Forecast_Model_Data_best.ncd
06:35:24 INFO: 
[Reading url 3/9]: http://geoport.whoi.edu/thredds/dodsC/coawst_4/use/fmrc/coawst_4_use_best.ncd
06:36:06 INFO: 
[Reading url 4/9]: http://omgarch1.meas.ncsu.edu:8080/thredds/dodsC/fmrc/sabgom/SABGOM_Forecast_Model_Run_Collection_best.ncd
06:36:41 INFO: 
[Reading url 5/9]: http://oos.soest.hawaii.edu/thredds/dodsC/hioos/tide_pac
06:36:50 INFO: 
[Reading url 6/9]: http://oos.soest.hawaii.edu/thredds/dodsC/pacioos/hycom/global
06:36:56 INFO: 
[Reading url 7/9]: http://tds.marine.rutgers.edu/thredds/dodsC/roms/espresso/2013_da/his_Best/ESPRESSO_Real-Time_v2_History_Best_Available_best.ncd
06:37:11 INFO: 
[Reading url 8/9]: http://omgsrv1.meas.ncsu.edu:8080/thredds/dodsC/fmrc/us_east/US_East_Forecast_Model_Run_Collection_best.ncd
06:37:34 WARNING: Cannot get cube for: http://omgsrv1.meas.ncsu.edu:8080/thredds/dodsC/fmrc/us_east/US_East_Forecast_Model_Run_Collection_best.ncd
istart must be different from istop! Got istart 0 and  istop 0
06:37:34 INFO: 
[Reading url 9/9]: http://crow.marine.usf.edu:8080/thredds/dodsC/WFS_SWAN_NF_model/USF_Ocean_Circulation_Group_West_Florida_Shelf_Daily_SWAN_Nowcast_Forecast_Wave_Model_Data_best.ncd
06:37:36 WARNING: Cannot get cube for: http://crow.marine.usf.edu:8080/thredds/dodsC/WFS_SWAN_NF_model/USF_Ocean_Circulation_Group_West_Florida_Shelf_Daily_SWAN_Nowcast_Forecast_Wave_Model_Data_best.ncd
Cannot find ['sea_surface_height', 'sea_surface_elevation', 'sea_surface_height_above_geoid', 'sea_surface_height_above_sea_level', 'water_surface_height_above_reference_datum', 'sea_surface_height_above_reference_ellipsoid'] in http://crow.marine.usf.edu:8080/thredds/dodsC/WFS_SWAN_NF_model/USF_Ocean_Circulation_Group_West_Florida_Shelf_Daily_SWAN_Nowcast_Forecast_Wave_Model_Data_best.ncd.
06:37:36 INFO: **** Saving to file 2014-07-07/2014-07-07-SABGOM_ARCHIVE.nc ****
06:37:44 INFO: [Water  ] Duck, NC
06:37:48 INFO: [Land   ] Oregon Inlet Marina, NC
06:37:52 INFO: [Water  ] USCG Station Hatteras, NC
06:37:56 INFO: [Land   ] Beaufort, NC
06:37:59 INFO: [Land   ] Wilmington, NC
06:38:04 INFO: [Water  ] Wrightsville Beach, NC
06:38:08 INFO: [Water  ] Springmaid Pier, SC
06:38:12 INFO: [Land   ] Oyster Landing (N Inlet Estuary), SC
06:38:16 INFO: [Land   ] Charleston, SC
06:38:21 INFO: [Land   ] Fernandina Beach, FL
06:38:25 INFO: [Land   ] Mayport (Bar Pilots Dock), FL
06:38:28 INFO: [Land   ] Dames Point, FL
06:38:32 INFO: [Land   ] Southbank Riverwalk, St Johns River, FL
06:38:37 INFO: [Land   ] I-295 Bridge, St Johns River, FL
06:38:40 INFO: [Land   ] Red Bay Point, St Johns River, FL
06:38:44 INFO: [Land   ] Racy Point, St Johns River, FL
06:38:52 INFO: [Land   ] Trident Pier, FL
06:39:00 INFO: [Land   ] Lake Worth Pier, FL
06:39:05 INFO: [Water  ] Virginia Key, FL
06:39:13 INFO: [Land   ] Vaca Key, FL
06:39:17 INFO: [Water  ] Key West, FL
06:39:20 INFO: [Land   ] Naples, FL
06:39:24 INFO: [Land   ] Fort Myers, FL
06:39:32 INFO: [Land   ] Port Manatee, FL
06:39:39 INFO: [Land   ] St Petersburg, FL
06:39:47 INFO: [Water  ] Old Port Tampa, FL
06:39:50 INFO: [Water  ] Cedar Key, FL
06:39:55 INFO: [Land   ] Apalachicola, FL
06:39:59 INFO: [Land   ] Panama City, FL
06:40:07 INFO: [Water  ] Panama City Beach, FL
06:40:11 INFO: [Land   ] Pensacola, FL
06:40:15 INFO: [Land   ] Tolomato River station
06:40:23 INFO: [Land   ] Fred Howard Park
06:40:27 INFO: [Land   ] usf_tas_ngwlms
06:40:31 INFO: [Land   ] Big Carlos Pass
06:40:34 INFO: [Land   ] Shell Point
06:40:42 INFO: [Water  ] St Lucie Inlet station
06:40:45 INFO: [Land   ] Naples Bay station
06:40:49 INFO: [Land   ] Vero Beach station
06:40:52 INFO: [Land   ] Ponce De Leon South station
06:40:56 INFO: [Land   ] Melbourne station
06:41:01 INFO: [Land   ] Aripeka
06:41:05 INFO: [Land   ] Bing's Landing station
06:41:09 INFO: [Land   ] Binney Dock station
06:41:12 INFO: [Land   ] Gordon River Inlet station
06:41:53 INFO: Finished processing [SABGOM_ARCHIVE]: http://crow.marine.usf.edu:8080/thredds/dodsC/WFS_SWAN_NF_model/USF_Ocean_Circulation_Group_West_Florida_Shelf_Daily_SWAN_Nowcast_Forecast_Wave_Model_Data_best.ncd
06:41:53 INFO: ******** Saving to file 2014-07-07/2014-07-07-BTMPB.nc *********
06:41:53 INFO: [No Data] Duck, NC
06:41:53 INFO: [No Data] Oregon Inlet Marina, NC
06:41:53 INFO: [No Data] USCG Station Hatteras, NC
06:41:53 INFO: [No Data] Beaufort, NC
06:41:53 INFO: [No Data] Wilmington, NC
06:41:53 INFO: [No Data] Wrightsville Beach, NC
06:41:53 INFO: [No Data] Springmaid Pier, SC
06:41:53 INFO: [No Data] Oyster Landing (N Inlet Estuary), SC
06:41:53 INFO: [No Data] Charleston, SC
06:41:53 INFO: [No Data] Fernandina Beach, FL
06:41:53 INFO: [No Data] Mayport (Bar Pilots Dock), FL
06:41:53 INFO: [No Data] Dames Point, FL
06:41:53 INFO: [No Data] Southbank Riverwalk, St Johns River, FL
06:41:53 INFO: [No Data] I-295 Bridge, St Johns River, FL
06:41:53 INFO: [No Data] Red Bay Point, St Johns River, FL
06:41:53 INFO: [No Data] Racy Point, St Johns River, FL
06:41:53 INFO: [No Data] Trident Pier, FL
06:41:53 INFO: [No Data] Lake Worth Pier, FL
06:41:53 INFO: [No Data] Virginia Key, FL
06:41:53 INFO: [No Data] Vaca Key, FL
06:41:53 INFO: [No Data] Key West, FL
06:41:53 INFO: [No Data] Naples, FL
06:41:53 INFO: [No Data] Fort Myers, FL
06:41:53 INFO: [No Data] Port Manatee, FL
06:41:53 INFO: [No Data] St Petersburg, FL
06:41:53 INFO: [No Data] Old Port Tampa, FL
06:41:53 INFO: [No Data] Cedar Key, FL
06:41:53 INFO: [No Data] Apalachicola, FL
06:41:53 INFO: [No Data] Panama City, FL
06:41:53 INFO: [No Data] Panama City Beach, FL
06:41:53 INFO: [No Data] Pensacola, FL
06:41:53 INFO: [No Data] Tolomato River station
06:41:53 INFO: [No Data] Fred Howard Park
06:41:53 INFO: [No Data] usf_tas_ngwlms
06:41:53 INFO: [No Data] Big Carlos Pass
06:41:53 INFO: [No Data] Shell Point
06:41:53 INFO: [No Data] St Lucie Inlet station
06:41:53 INFO: [No Data] Naples Bay station
06:41:53 INFO: [No Data] Vero Beach station
06:41:53 INFO: [No Data] Ponce De Leon South station
06:41:53 INFO: [No Data] Melbourne station
06:41:53 INFO: [No Data] Aripeka
06:41:53 INFO: [No Data] Bing's Landing station
06:41:53 INFO: [No Data] Binney Dock station
06:41:53 INFO: [No Data] Gordon River Inlet station
06:41:53 INFO: Finished processing [BTMPB]: http://crow.marine.usf.edu:8080/thredds/dodsC/WFS_SWAN_NF_model/USF_Ocean_Circulation_Group_West_Florida_Shelf_Daily_SWAN_Nowcast_Forecast_Wave_Model_Data_best.ncd
06:41:53 INFO: ******** Saving to file 2014-07-07/2014-07-07-HYCOM.nc *********
06:41:58 INFO: [Land   ] Duck, NC
06:42:04 INFO: [Water  ] Oregon Inlet Marina, NC
06:42:09 INFO: [Land   ] USCG Station Hatteras, NC
06:42:13 INFO: [Land   ] Beaufort, NC
06:42:17 INFO: [Land   ] Wilmington, NC
06:42:22 INFO: [Water  ] Wrightsville Beach, NC
06:42:22 INFO: [No Data] Springmaid Pier, SC
06:42:27 INFO: [Land   ] Oyster Landing (N Inlet Estuary), SC
06:42:32 INFO: [Land   ] Charleston, SC
06:42:37 INFO: [Land   ] Fernandina Beach, FL
06:42:42 INFO: [Land   ] Mayport (Bar Pilots Dock), FL
06:42:47 INFO: [Land   ] Dames Point, FL
06:42:51 INFO: [Land   ] Southbank Riverwalk, St Johns River, FL
06:42:56 INFO: [Land   ] I-295 Bridge, St Johns River, FL
06:43:01 INFO: [Land   ] Red Bay Point, St Johns River, FL
06:43:01 INFO: [No Data] Racy Point, St Johns River, FL
06:43:06 INFO: [Land   ] Trident Pier, FL
06:43:10 INFO: [Water  ] Lake Worth Pier, FL
06:43:14 INFO: [Land   ] Virginia Key, FL
06:43:19 INFO: [Land   ] Vaca Key, FL
06:43:24 INFO: [Land   ] Key West, FL
06:43:24 INFO: [No Data] Naples, FL
06:43:29 INFO: [Land   ] Fort Myers, FL
06:43:33 INFO: [Land   ] Port Manatee, FL
06:43:38 INFO: [Land   ] St Petersburg, FL
06:43:42 INFO: [Land   ] Old Port Tampa, FL
06:43:48 INFO: [Land   ] Cedar Key, FL
06:43:52 INFO: [Land   ] Apalachicola, FL
06:43:57 INFO: [Land   ] Panama City, FL
06:43:57 INFO: [No Data] Panama City Beach, FL
06:44:02 INFO: [Land   ] Pensacola, FL
06:44:07 INFO: [Land   ] Tolomato River station
06:44:11 INFO: [Land   ] Fred Howard Park
06:44:16 INFO: [Land   ] usf_tas_ngwlms
06:44:16 INFO: [No Data] Big Carlos Pass
06:44:21 INFO: [Land   ] Shell Point
06:44:26 INFO: [Land   ] St Lucie Inlet station
06:44:31 INFO: [Land   ] Naples Bay station
06:44:35 INFO: [Land   ] Vero Beach station
06:44:41 INFO: [Water  ] Ponce De Leon South station
06:44:46 INFO: [Land   ] Melbourne station
06:44:51 INFO: [Land   ] Aripeka
06:44:56 INFO: [Land   ] Bing's Landing station
06:45:00 INFO: [Land   ] Binney Dock station
06:45:05 INFO: [Land   ] Gordon River Inlet station
06:45:05 INFO: Finished processing [HYCOM]: http://crow.marine.usf.edu:8080/thredds/dodsC/WFS_SWAN_NF_model/USF_Ocean_Circulation_Group_West_Florida_Shelf_Daily_SWAN_Nowcast_Forecast_Wave_Model_Data_best.ncd
06:45:05 INFO: ******* Saving to file 2014-07-07/2014-07-07-USF_ROMS.nc *******
06:45:05 INFO: [No Data] Duck, NC
06:45:05 INFO: [No Data] Oregon Inlet Marina, NC
06:45:05 INFO: [No Data] USCG Station Hatteras, NC
06:45:05 INFO: [No Data] Beaufort, NC
06:45:05 INFO: [No Data] Wilmington, NC
06:45:05 INFO: [No Data] Wrightsville Beach, NC
06:45:05 INFO: [No Data] Springmaid Pier, SC
06:45:05 INFO: [No Data] Oyster Landing (N Inlet Estuary), SC
06:45:05 INFO: [No Data] Charleston, SC
06:45:05 INFO: [No Data] Fernandina Beach, FL
06:45:05 INFO: [No Data] Mayport (Bar Pilots Dock), FL
06:45:05 INFO: [No Data] Dames Point, FL
06:45:05 INFO: [No Data] Southbank Riverwalk, St Johns River, FL
06:45:05 INFO: [No Data] I-295 Bridge, St Johns River, FL
06:45:05 INFO: [No Data] Red Bay Point, St Johns River, FL
06:45:05 INFO: [No Data] Racy Point, St Johns River, FL
06:45:05 INFO: [No Data] Trident Pier, FL
06:45:05 INFO: [No Data] Lake Worth Pier, FL
06:45:05 INFO: [No Data] Virginia Key, FL
06:45:05 INFO: [No Data] Vaca Key, FL
06:45:05 INFO: [No Data] Key West, FL
06:45:07 INFO: [Water  ] Naples, FL
06:45:10 INFO: [Water  ] Fort Myers, FL
06:45:16 INFO: [Water  ] Port Manatee, FL
06:45:16 INFO: [No Data] St Petersburg, FL
06:45:18 INFO: [Water  ] Old Port Tampa, FL
06:45:27 INFO: [Water  ] Cedar Key, FL
06:45:34 INFO: [Water  ] Apalachicola, FL
06:45:42 INFO: [Water  ] Panama City, FL
06:45:48 INFO: [Water  ] Panama City Beach, FL
06:45:48 INFO: [No Data] Pensacola, FL
06:45:48 INFO: [No Data] Tolomato River station
06:45:52 INFO: [Water  ] Fred Howard Park
06:45:59 INFO: [Water  ] usf_tas_ngwlms
06:46:03 INFO: [Water  ] Big Carlos Pass
06:46:13 INFO: [Water  ] Shell Point
06:46:13 INFO: [No Data] St Lucie Inlet station
06:46:17 INFO: [Water  ] Naples Bay station
06:46:17 INFO: [No Data] Vero Beach station
06:46:17 INFO: [No Data] Ponce De Leon South station
06:46:17 INFO: [No Data] Melbourne station
06:46:25 INFO: [Water  ] Aripeka
06:46:25 INFO: [No Data] Bing's Landing station
06:46:25 INFO: [No Data] Binney Dock station
06:46:27 INFO: [Water  ] Gordon River Inlet station
06:47:09 INFO: Finished processing [USF_ROMS]: http://crow.marine.usf.edu:8080/thredds/dodsC/WFS_SWAN_NF_model/USF_Ocean_Circulation_Group_West_Florida_Shelf_Daily_SWAN_Nowcast_Forecast_Wave_Model_Data_best.ncd
06:47:09 INFO: ****** Saving to file 2014-07-07/2014-07-07-USF_FVCOM.nc *******
06:47:10 INFO: [No Data] Duck, NC
06:47:10 INFO: [No Data] Oregon Inlet Marina, NC
06:47:10 INFO: [No Data] USCG Station Hatteras, NC
06:47:10 INFO: [No Data] Beaufort, NC
06:47:10 INFO: [No Data] Wilmington, NC
06:47:10 INFO: [No Data] Wrightsville Beach, NC
06:47:10 INFO: [No Data] Springmaid Pier, SC
06:47:10 INFO: [No Data] Oyster Landing (N Inlet Estuary), SC
06:47:10 INFO: [No Data] Charleston, SC
06:47:10 INFO: [No Data] Fernandina Beach, FL
06:47:10 INFO: [No Data] Mayport (Bar Pilots Dock), FL
06:47:10 INFO: [No Data] Dames Point, FL
06:47:10 INFO: [No Data] Southbank Riverwalk, St Johns River, FL
06:47:10 INFO: [No Data] I-295 Bridge, St Johns River, FL
06:47:10 INFO: [No Data] Red Bay Point, St Johns River, FL
06:47:10 INFO: [No Data] Racy Point, St Johns River, FL
06:47:10 INFO: [No Data] Trident Pier, FL
06:47:10 INFO: [No Data] Lake Worth Pier, FL
06:47:10 INFO: [No Data] Virginia Key, FL
06:47:32 INFO: [Water  ] Vaca Key, FL
06:47:52 INFO: [Water  ] Key West, FL
06:48:15 INFO: [Water  ] Naples, FL
06:48:39 INFO: [Water  ] Fort Myers, FL
06:48:58 INFO: [Water  ] Port Manatee, FL
06:49:22 INFO: [Water  ] St Petersburg, FL
06:49:43 INFO: [Water  ] Old Port Tampa, FL
06:49:52 INFO: [Water  ] Cedar Key, FL
06:50:14 INFO: [Water  ] Apalachicola, FL
06:50:14 INFO: [No Data] Panama City, FL
06:50:32 INFO: [Water  ] Panama City Beach, FL
06:50:32 INFO: [No Data] Pensacola, FL
06:50:32 INFO: [No Data] Tolomato River station
06:50:51 INFO: [Water  ] Fred Howard Park
06:50:59 INFO: [Water  ] usf_tas_ngwlms
06:51:23 INFO: [Water  ] Big Carlos Pass
06:51:51 INFO: [Water  ] Shell Point
06:51:51 INFO: [No Data] St Lucie Inlet station
06:52:12 INFO: [Water  ] Naples Bay station
06:52:12 INFO: [No Data] Vero Beach station
06:52:12 INFO: [No Data] Ponce De Leon South station
06:52:12 INFO: [No Data] Melbourne station
06:52:35 INFO: [Water  ] Aripeka
06:52:35 INFO: [No Data] Bing's Landing station
06:52:35 INFO: [No Data] Binney Dock station
06:52:55 INFO: [Water  ] Gordon River Inlet station
06:52:55 INFO: Finished processing [USF_FVCOM]: http://crow.marine.usf.edu:8080/thredds/dodsC/WFS_SWAN_NF_model/USF_Ocean_Circulation_Group_West_Florida_Shelf_Daily_SWAN_Nowcast_Forecast_Wave_Model_Data_best.ncd
06:52:55 INFO: ******* Saving to file 2014-07-07/2014-07-07-COAWST_4.nc *******
06:53:01 INFO: [Land   ] Duck, NC
06:53:13 INFO: [Water  ] Oregon Inlet Marina, NC
06:53:19 INFO: [Water  ] USCG Station Hatteras, NC
06:53:31 INFO: [Land   ] Beaufort, NC
06:53:37 INFO: [Land   ] Wilmington, NC
06:53:42 INFO: [Water  ] Wrightsville Beach, NC
06:53:56 INFO: [Water  ] Springmaid Pier, SC
06:54:02 INFO: [Land   ] Oyster Landing (N Inlet Estuary), SC
06:54:08 INFO: [Land   ] Charleston, SC
06:54:14 INFO: [Land   ] Fernandina Beach, FL
06:54:19 INFO: [Land   ] Mayport (Bar Pilots Dock), FL
06:54:25 INFO: [Land   ] Dames Point, FL
06:54:32 INFO: [Land   ] Southbank Riverwalk, St Johns River, FL
06:54:37 INFO: [Land   ] I-295 Bridge, St Johns River, FL
06:54:43 INFO: [Land   ] Red Bay Point, St Johns River, FL
06:54:49 INFO: [Land   ] Racy Point, St Johns River, FL
06:54:55 INFO: [Land   ] Trident Pier, FL
06:55:07 INFO: [Water  ] Lake Worth Pier, FL
06:55:13 INFO: [Land   ] Virginia Key, FL
06:55:20 INFO: [Land   ] Vaca Key, FL
06:55:32 INFO: [Water  ] Key West, FL
06:55:39 INFO: [Land   ] Naples, FL
06:55:44 INFO: [Land   ] Fort Myers, FL
06:55:51 INFO: [Land   ] Port Manatee, FL
06:55:57 INFO: [Land   ] St Petersburg, FL
06:56:08 INFO: [Water  ] Old Port Tampa, FL
06:56:20 INFO: [Water  ] Cedar Key, FL
06:56:25 INFO: [Water  ] Apalachicola, FL
06:56:31 INFO: [Water  ] Panama City, FL
06:56:44 INFO: [Land   ] Panama City Beach, FL
06:56:50 INFO: [Water  ] Pensacola, FL
06:56:56 INFO: [Land   ] Tolomato River station
06:57:02 INFO: [Land   ] Fred Howard Park
06:57:07 INFO: [Land   ] usf_tas_ngwlms
06:57:15 INFO: [Water  ] Big Carlos Pass
06:57:21 INFO: [Land   ] Shell Point
06:57:33 INFO: [Water  ] St Lucie Inlet station
06:57:39 INFO: [Land   ] Naples Bay station
06:57:52 INFO: [Land   ] Vero Beach station
06:57:58 INFO: [Water  ] Ponce De Leon South station
06:58:04 INFO: [Land   ] Melbourne station
06:58:10 INFO: [Land   ] Aripeka
06:58:16 INFO: [Land   ] Bing's Landing station
06:58:28 INFO: [Land   ] Binney Dock station
06:58:35 INFO: [Land   ] Gordon River Inlet station
06:59:55 INFO: Finished processing [COAWST_4]: http://crow.marine.usf.edu:8080/thredds/dodsC/WFS_SWAN_NF_model/USF_Ocean_Circulation_Group_West_Florida_Shelf_Daily_SWAN_Nowcast_Forecast_Wave_Model_Data_best.ncd
06:59:55 INFO: ******* Saving to file 2014-07-07/2014-07-07-ESPRESSO.nc *******
06:59:59 INFO: [Land   ] Duck, NC
07:00:03 INFO: [Water  ] Oregon Inlet Marina, NC
07:00:07 INFO: [Land   ] USCG Station Hatteras, NC
07:00:11 INFO: [Water  ] Beaufort, NC
07:00:11 INFO: [No Data] Wilmington, NC
07:00:11 INFO: [No Data] Wrightsville Beach, NC
07:00:11 INFO: [No Data] Springmaid Pier, SC
07:00:11 INFO: [No Data] Oyster Landing (N Inlet Estuary), SC
07:00:11 INFO: [No Data] Charleston, SC
07:00:11 INFO: [No Data] Fernandina Beach, FL
07:00:11 INFO: [No Data] Mayport (Bar Pilots Dock), FL
07:00:11 INFO: [No Data] Dames Point, FL
07:00:11 INFO: [No Data] Southbank Riverwalk, St Johns River, FL
07:00:11 INFO: [No Data] I-295 Bridge, St Johns River, FL
07:00:11 INFO: [No Data] Red Bay Point, St Johns River, FL
07:00:11 INFO: [No Data] Racy Point, St Johns River, FL
07:00:11 INFO: [No Data] Trident Pier, FL
07:00:11 INFO: [No Data] Lake Worth Pier, FL
07:00:11 INFO: [No Data] Virginia Key, FL
07:00:11 INFO: [No Data] Vaca Key, FL
07:00:11 INFO: [No Data] Key West, FL
07:00:11 INFO: [No Data] Naples, FL
07:00:11 INFO: [No Data] Fort Myers, FL
07:00:11 INFO: [No Data] Port Manatee, FL
07:00:11 INFO: [No Data] St Petersburg, FL
07:00:11 INFO: [No Data] Old Port Tampa, FL
07:00:11 INFO: [No Data] Cedar Key, FL
07:00:11 INFO: [No Data] Apalachicola, FL
07:00:11 INFO: [No Data] Panama City, FL
07:00:11 INFO: [No Data] Panama City Beach, FL
07:00:11 INFO: [No Data] Pensacola, FL
07:00:11 INFO: [No Data] Tolomato River station
07:00:11 INFO: [No Data] Fred Howard Park
07:00:11 INFO: [No Data] usf_tas_ngwlms
07:00:11 INFO: [No Data] Big Carlos Pass
07:00:11 INFO: [No Data] Shell Point
07:00:11 INFO: [No Data] St Lucie Inlet station
07:00:11 INFO: [No Data] Naples Bay station
07:00:11 INFO: [No Data] Vero Beach station
07:00:11 INFO: [No Data] Ponce De Leon South station
07:00:11 INFO: [No Data] Melbourne station
07:00:11 INFO: [No Data] Aripeka
07:00:11 INFO: [No Data] Bing's Landing station
07:00:11 INFO: [No Data] Binney Dock station
07:00:11 INFO: [No Data] Gordon River Inlet station
07:00:19 INFO: Finished processing [ESPRESSO]: http://crow.marine.usf.edu:8080/thredds/dodsC/WFS_SWAN_NF_model/USF_Ocean_Circulation_Group_West_Florida_Shelf_Daily_SWAN_Nowcast_Forecast_Wave_Model_Data_best.ncd
07:00:19 INFO: 41.67 minutes
07:00:19 INFO: EOF
