08:24:52 INFO: *********************** Run information ************************
08:24:52 INFO: Run date: 2015-02-03 23:24:52
08:24:52 INFO: Download start: 2014-06-30 12:00:00
08:24:52 INFO: Download stop: 2014-07-07 12:00:00
08:24:52 INFO: Bounding box: -87.40, 24.25,-74.70, 36.70
08:24:52 INFO: *********************** Software version ***********************
08:24:52 INFO: Iris version: 1.7.2-DEV
08:24:52 INFO: owslib version: 0.8-dev
08:24:52 INFO: pyoos version: 0.6.2
08:24:56 INFO: ********************* Catalog information **********************
08:24:56 INFO: URL: http://www.ngdc.noaa.gov/geoportal/csw
08:24:56 INFO: CSW version: 2.0.2
08:24:56 INFO: Number of datasets available: 9
08:24:56 INFO: ***************************** CSW ******************************
08:24:56 INFO: USF FVCOM - Nowcast Aggregation
08:24:56 INFO: ROMS/TOMS 3.0 - New Floria Shelf Application
08:24:56 INFO: ROMS/TOMS 3.0 - South-Atlantic Bight and Gulf of Mexico
08:24:56 INFO: COAWST Forecast System : USGS : US East Coast and Gulf of Mexico (Experimental)
08:24:56 INFO: ROMS ESPRESSO Real-Time Operational IS4DVAR Forecast System Version 2 (NEW) 2013-present FMRC History (Best)
08:24:56 INFO: Barotropic Tide Model for the Pacific Basin
08:24:56 INFO: HYbrid Coordinate Ocean Model (HYCOM): Global
08:24:56 INFO: ESTOFS Storm Surge Model - Atlantic - v1.0.0 - NOAA - NCEP - ADCIRC
08:24:56 INFO: NECOFS GOM3 Wave - Northeast US - Latest Forecast
08:24:56 INFO: ***************************** DAP ******************************
08:24:56 INFO: http://crow.marine.usf.edu:8080/thredds/dodsC/FVCOM-Nowcast-Agg.nc.html
08:24:56 INFO: http://crow.marine.usf.edu:8080/thredds/dodsC/WFS_ROMS_NF_model/USF_Ocean_Circulation_Group_West_Florida_Shelf_Daily_ROMS_Nowcast_Forecast_Model_Data_best.ncd.html
08:24:56 INFO: http://geoport-dev.whoi.edu/thredds/dodsC/estofs/atlantic.html
08:24:56 INFO: http://geoport.whoi.edu/thredds/dodsC/coawst_4/use/fmrc/coawst_4_use_best.ncd.html
08:24:56 INFO: http://omgsrv1.meas.ncsu.edu:8080/thredds/dodsC/fmrc/sabgom/SABGOM_Forecast_Model_Run_Collection_best.ncd.html
08:24:56 INFO: http://oos.soest.hawaii.edu/thredds/dodsC/hioos/tide_pac.html
08:24:56 INFO: http://oos.soest.hawaii.edu/thredds/dodsC/pacioos/hycom/global.html
08:24:56 INFO: http://tds.marine.rutgers.edu/thredds/dodsC/roms/espresso/2013_da/his_Best/ESPRESSO_Real-Time_v2_History_Best_Available_best.ncd.html
08:24:56 INFO: http://www.smast.umassd.edu:8080/thredds/dodsC/FVCOM/NECOFS/Forecasts/NECOFS_WAVE_FORECAST.nc.html
08:24:56 INFO: ***************************** SOS ******************************
08:24:56 WARNING: USEAST not in the NGDC csw
08:24:56 WARNING: USF_SWAN not in the NGDC csw
08:25:04 WARNING: /home/filipe/miniconda/envs/SECOORA/lib/python2.7/site-packages/iris/fileformats/_pyke_rules/compiled_krb/fc_rules_cf_fc.py:1359: UserWarning: Failed to create 'time' dimension coordinate: The points array must be strictly monotonic.
Gracefully creating 'time' auxiliary coordinate instead.
  error=e_msg))

08:25:04 WARNING: Cannot get cube for: http://129.252.139.124/thredds/dodsC/fit.sispnj.met.nc
Cube does not contain ['sea_surface_height', 'sea_surface_elevation', 'sea_surface_height_above_geoid', 'sea_surface_height_above_sea_level', 'water_surface_height_above_reference_datum', 'sea_surface_height_above_reference_ellipsoid']
08:25:08 WARNING: Cannot get cube for: http://129.252.139.124/thredds/dodsC/usf.nfb.ngwlms.nc
Cube does not contain ['sea_surface_height', 'sea_surface_elevation', 'sea_surface_height_above_geoid', 'sea_surface_height_above_sea_level', 'water_surface_height_above_reference_datum', 'sea_surface_height_above_reference_ellipsoid']
08:25:22 WARNING: Cannot get cube for: http://129.252.139.124/thredds/dodsC/usf.c21.weatherpak.nc
Cube does not contain ['sea_surface_height', 'sea_surface_elevation', 'sea_surface_height_above_geoid', 'sea_surface_height_above_sea_level', 'water_surface_height_above_reference_datum', 'sea_surface_height_above_reference_ellipsoid']
08:25:57 WARNING: Cannot get cube for: http://129.252.139.124/thredds/dodsC/usf.c10.mcat.nc
Cube does not contain ['sea_surface_height', 'sea_surface_elevation', 'sea_surface_height_above_geoid', 'sea_surface_height_above_sea_level', 'water_surface_height_above_reference_datum', 'sea_surface_height_above_reference_ellipsoid']
08:26:01 WARNING: Cannot get cube for: http://129.252.139.124/thredds/dodsC/usf.c12.mcat.nc
Cube does not contain ['sea_surface_height', 'sea_surface_elevation', 'sea_surface_height_above_geoid', 'sea_surface_height_above_sea_level', 'water_surface_height_above_reference_datum', 'sea_surface_height_above_reference_ellipsoid']
08:26:06 WARNING: Cannot get cube for: http://129.252.139.124/thredds/dodsC/usf.c13.mcat.nc
Cube does not contain ['sea_surface_height', 'sea_surface_elevation', 'sea_surface_height_above_geoid', 'sea_surface_height_above_sea_level', 'water_surface_height_above_reference_datum', 'sea_surface_height_above_reference_ellipsoid']
08:26:11 WARNING: Cannot get cube for: http://129.252.139.124/thredds/dodsC/usf.c10.mcat_2011.nc
Cube does not contain ['sea_surface_height', 'sea_surface_elevation', 'sea_surface_height_above_geoid', 'sea_surface_height_above_sea_level', 'water_surface_height_above_reference_datum', 'sea_surface_height_above_reference_ellipsoid']
08:26:17 WARNING: Cannot get cube for: http://129.252.139.124/thredds/dodsC/usf.c12.mcat_2011.nc
Cube does not contain ['sea_surface_height', 'sea_surface_elevation', 'sea_surface_height_above_geoid', 'sea_surface_height_above_sea_level', 'water_surface_height_above_reference_datum', 'sea_surface_height_above_reference_ellipsoid']
08:26:23 WARNING: Cannot get cube for: http://129.252.139.124/thredds/dodsC/usf.c13.mcat_2011.nc
Cube does not contain ['sea_surface_height', 'sea_surface_elevation', 'sea_surface_height_above_geoid', 'sea_surface_height_above_sea_level', 'water_surface_height_above_reference_datum', 'sea_surface_height_above_reference_ellipsoid']
08:26:27 WARNING: Cannot get cube for: http://129.252.139.124/thredds/dodsC/carocoops.sun2.buoy.nc
Cube does not contain ['sea_surface_height', 'sea_surface_elevation', 'sea_surface_height_above_geoid', 'sea_surface_height_above_sea_level', 'water_surface_height_above_reference_datum', 'sea_surface_height_above_reference_ellipsoid']
08:26:32 WARNING: Cannot get cube for: http://129.252.139.124/thredds/dodsC/carocoops.frp2.buoy.nc
Cube does not contain ['sea_surface_height', 'sea_surface_elevation', 'sea_surface_height_above_geoid', 'sea_surface_height_above_sea_level', 'water_surface_height_above_reference_datum', 'sea_surface_height_above_reference_ellipsoid']
08:26:40 WARNING: Cannot get cube for: http://129.252.139.124/thredds/dodsC/carocoops.cap2.buoy.nc
Cube does not contain ['sea_surface_height', 'sea_surface_elevation', 'sea_surface_height_above_geoid', 'sea_surface_height_above_sea_level', 'water_surface_height_above_reference_datum', 'sea_surface_height_above_reference_ellipsoid']
08:26:50 WARNING: Cannot get cube for: http://129.252.139.124/thredds/dodsC/cormp.ilm3.buoy.nc
Cube does not contain ['sea_surface_height', 'sea_surface_elevation', 'sea_surface_height_above_geoid', 'sea_surface_height_above_sea_level', 'water_surface_height_above_reference_datum', 'sea_surface_height_above_reference_ellipsoid']
08:27:08 WARNING: Cannot get cube for: http://129.252.139.124/thredds/dodsC/cormp.ilm2.buoy.nc
Cube does not contain ['sea_surface_height', 'sea_surface_elevation', 'sea_surface_height_above_geoid', 'sea_surface_height_above_sea_level', 'water_surface_height_above_reference_datum', 'sea_surface_height_above_reference_ellipsoid']
08:27:10 WARNING: Cannot get cube for: http://129.252.139.124/thredds/dodsC/cormp.ilm1.buoy.nc
Cube does not contain ['sea_surface_height', 'sea_surface_elevation', 'sea_surface_height_above_geoid', 'sea_surface_height_above_sea_level', 'water_surface_height_above_reference_datum', 'sea_surface_height_above_reference_ellipsoid']
08:27:15 WARNING: Cannot get cube for: http://129.252.139.124/thredds/dodsC/cormp.lej3.buoy.nc
Cube does not contain ['sea_surface_height', 'sea_surface_elevation', 'sea_surface_height_above_geoid', 'sea_surface_height_above_sea_level', 'water_surface_height_above_reference_datum', 'sea_surface_height_above_reference_ellipsoid']
08:27:17 WARNING: /home/filipe/miniconda/envs/SECOORA/lib/python2.7/site-packages/iris/fileformats/_pyke_rules/compiled_krb/fc_rules_cf_fc.py:1196: UserWarning: Ignoring netCDF variable 'dissolved_oxygen_saturation' invalid units 'mg_L-1'
  warnings.warn(msg.format(msg_name, msg_units))

08:27:18 WARNING: /home/filipe/miniconda/envs/SECOORA/lib/python2.7/site-packages/iris/fileformats/_pyke_rules/compiled_krb/fc_rules_cf_fc.py:1196: UserWarning: Ignoring netCDF variable 'dissolved_oxygen' invalid units 'mg_L-1'
  warnings.warn(msg.format(msg_name, msg_units))

08:27:18 WARNING: /home/filipe/miniconda/envs/SECOORA/lib/python2.7/site-packages/iris/fileformats/_pyke_rules/compiled_krb/fc_rules_cf_fc.py:1196: UserWarning: Ignoring netCDF variable 'cdom' invalid units 'QSDE'
  warnings.warn(msg.format(msg_name, msg_units))

08:27:18 WARNING: /home/filipe/miniconda/envs/SECOORA/lib/python2.7/site-packages/iris/fileformats/_pyke_rules/compiled_krb/fc_rules_cf_fc.py:1196: UserWarning: Ignoring netCDF variable 'turbidity' invalid units 'ntu'
  warnings.warn(msg.format(msg_name, msg_units))

08:27:18 WARNING: /home/filipe/miniconda/envs/SECOORA/lib/python2.7/site-packages/iris/fileformats/_pyke_rules/compiled_krb/fc_rules_cf_fc.py:1196: UserWarning: Ignoring netCDF variable 'conductivity' invalid units 'mS_cm-1'
  warnings.warn(msg.format(msg_name, msg_units))

08:27:18 WARNING: Cannot get cube for: http://129.252.139.124/thredds/dodsC/sccf.gulfofmexico.wq.nc
Cube does not contain ['sea_surface_height', 'sea_surface_elevation', 'sea_surface_height_above_geoid', 'sea_surface_height_above_sea_level', 'water_surface_height_above_reference_datum', 'sea_surface_height_above_reference_ellipsoid']
08:27:22 WARNING: /home/filipe/miniconda/envs/SECOORA/lib/python2.7/site-packages/iris/fileformats/_pyke_rules/compiled_krb/fc_rules_cf_fc.py:1196: UserWarning: Ignoring netCDF variable 'nitrate' invalid units 'uM'
  warnings.warn(msg.format(msg_name, msg_units))

08:27:22 WARNING: Cannot get cube for: http://129.252.139.124/thredds/dodsC/sccf.shellpoint.wq.nc
Cube does not contain ['sea_surface_height', 'sea_surface_elevation', 'sea_surface_height_above_geoid', 'sea_surface_height_above_sea_level', 'water_surface_height_above_reference_datum', 'sea_surface_height_above_reference_ellipsoid']
08:27:26 WARNING: Cannot get cube for: http://129.252.139.124/thredds/dodsC/sccf.redfishpass.wq.nc
Cube does not contain ['sea_surface_height', 'sea_surface_elevation', 'sea_surface_height_above_geoid', 'sea_surface_height_above_sea_level', 'water_surface_height_above_reference_datum', 'sea_surface_height_above_reference_ellipsoid']
08:27:30 WARNING: Cannot get cube for: http://129.252.139.124/thredds/dodsC/sccf.tarponbay.wq.nc
Cube does not contain ['sea_surface_height', 'sea_surface_elevation', 'sea_surface_height_above_geoid', 'sea_surface_height_above_sea_level', 'water_surface_height_above_reference_datum', 'sea_surface_height_above_reference_ellipsoid']
08:27:33 WARNING: Cannot get cube for: http://129.252.139.124/thredds/dodsC/sccf.fortmyers.wq.nc
Cube does not contain ['sea_surface_height', 'sea_surface_elevation', 'sea_surface_height_above_geoid', 'sea_surface_height_above_sea_level', 'water_surface_height_above_reference_datum', 'sea_surface_height_above_reference_ellipsoid']
08:27:39 WARNING: /home/filipe/miniconda/envs/SECOORA/lib/python2.7/site-packages/iris/fileformats/_pyke_rules/compiled_krb/fc_rules_cf_fc.py:1196: UserWarning: Ignoring netCDF variable 'conductivity_2' invalid units 'mS_cm-1'
  warnings.warn(msg.format(msg_name, msg_units))

08:27:53 WARNING: Cannot get cube for: http://129.252.139.124/thredds/dodsC/fldep.redbaypoint..nc
istart must be different from istop! Got istart 43 and  istop 43
08:28:47 WARNING: Cannot get cube for: http://129.252.139.124/thredds/dodsC/lbhmc.2ndave.pier.nc
Cube does not contain ['sea_surface_height', 'sea_surface_elevation', 'sea_surface_height_above_geoid', 'sea_surface_height_above_sea_level', 'water_surface_height_above_reference_datum', 'sea_surface_height_above_reference_ellipsoid']
08:28:53 WARNING: /home/filipe/miniconda/envs/SECOORA/lib/python2.7/site-packages/iris/fileformats/_pyke_rules/compiled_krb/fc_rules_cf_fc.py:1196: UserWarning: Ignoring netCDF variable 'turbidity_2' invalid units 'ntu'
  warnings.warn(msg.format(msg_name, msg_units))

08:28:53 WARNING: /home/filipe/miniconda/envs/SECOORA/lib/python2.7/site-packages/iris/fileformats/_pyke_rules/compiled_krb/fc_rules_cf_fc.py:1196: UserWarning: Ignoring netCDF variable 'dissolved_oxygen_2' invalid units 'mg_L-1'
  warnings.warn(msg.format(msg_name, msg_units))

08:28:53 WARNING: Cannot get cube for: http://129.252.139.124/thredds/dodsC/lbhmc.cherrygrove.pier.nc
Cube does not contain ['sea_surface_height', 'sea_surface_elevation', 'sea_surface_height_above_geoid', 'sea_surface_height_above_sea_level', 'water_surface_height_above_reference_datum', 'sea_surface_height_above_reference_ellipsoid']
08:29:01 WARNING: Cannot get cube for: http://129.252.139.124/thredds/dodsC/lbhmc.apachepier.pier.nc
Cube does not contain ['sea_surface_height', 'sea_surface_elevation', 'sea_surface_height_above_geoid', 'sea_surface_height_above_sea_level', 'water_surface_height_above_reference_datum', 'sea_surface_height_above_reference_ellipsoid']
08:29:05 WARNING: Cannot get cube for: http://129.252.139.124/thredds/dodsC/enp.wiwf1.met.nc
Cube does not contain ['sea_surface_height', 'sea_surface_elevation', 'sea_surface_height_above_geoid', 'sea_surface_height_above_sea_level', 'water_surface_height_above_reference_datum', 'sea_surface_height_above_reference_ellipsoid']
08:29:09 WARNING: Cannot get cube for: http://129.252.139.124/thredds/dodsC/enp.lbrf1.met.nc
Cube does not contain ['sea_surface_height', 'sea_surface_elevation', 'sea_surface_height_above_geoid', 'sea_surface_height_above_sea_level', 'water_surface_height_above_reference_datum', 'sea_surface_height_above_reference_ellipsoid']
08:29:14 WARNING: Cannot get cube for: http://129.252.139.124/thredds/dodsC/enp.bobf1.met.nc
Cube does not contain ['sea_surface_height', 'sea_surface_elevation', 'sea_surface_height_above_geoid', 'sea_surface_height_above_sea_level', 'water_surface_height_above_reference_datum', 'sea_surface_height_above_reference_ellipsoid']
08:29:18 WARNING: Cannot get cube for: http://129.252.139.124/thredds/dodsC/enp.trrf1.met.nc
Cube does not contain ['sea_surface_height', 'sea_surface_elevation', 'sea_surface_height_above_geoid', 'sea_surface_height_above_sea_level', 'water_surface_height_above_reference_datum', 'sea_surface_height_above_reference_ellipsoid']
08:29:23 WARNING: Cannot get cube for: http://129.252.139.124/thredds/dodsC/enp.wwef1.met.nc
Cube does not contain ['sea_surface_height', 'sea_surface_elevation', 'sea_surface_height_above_geoid', 'sea_surface_height_above_sea_level', 'water_surface_height_above_reference_datum', 'sea_surface_height_above_reference_ellipsoid']
08:29:28 WARNING: Cannot get cube for: http://129.252.139.124/thredds/dodsC/enp.lrif1.met.nc
Cube does not contain ['sea_surface_height', 'sea_surface_elevation', 'sea_surface_height_above_geoid', 'sea_surface_height_above_sea_level', 'water_surface_height_above_reference_datum', 'sea_surface_height_above_reference_ellipsoid']
08:29:33 WARNING: Cannot get cube for: http://129.252.139.124/thredds/dodsC/enp.bwsf1.met.nc
Cube does not contain ['sea_surface_height', 'sea_surface_elevation', 'sea_surface_height_above_geoid', 'sea_surface_height_above_sea_level', 'water_surface_height_above_reference_datum', 'sea_surface_height_above_reference_ellipsoid']
08:29:37 WARNING: Cannot get cube for: http://129.252.139.124/thredds/dodsC/enp.pkyf1.met.nc
Cube does not contain ['sea_surface_height', 'sea_surface_elevation', 'sea_surface_height_above_geoid', 'sea_surface_height_above_sea_level', 'water_surface_height_above_reference_datum', 'sea_surface_height_above_reference_ellipsoid']
08:29:42 WARNING: Cannot get cube for: http://129.252.139.124/thredds/dodsC/enp.lmdf1.met.nc
Cube does not contain ['sea_surface_height', 'sea_surface_elevation', 'sea_surface_height_above_geoid', 'sea_surface_height_above_sea_level', 'water_surface_height_above_reference_datum', 'sea_surface_height_above_reference_ellipsoid']
08:29:46 WARNING: Cannot get cube for: http://129.252.139.124/thredds/dodsC/enp.cnbf1.met.nc
Cube does not contain ['sea_surface_height', 'sea_surface_elevation', 'sea_surface_height_above_geoid', 'sea_surface_height_above_sea_level', 'water_surface_height_above_reference_datum', 'sea_surface_height_above_reference_ellipsoid']
08:29:51 WARNING: Cannot get cube for: http://129.252.139.124/thredds/dodsC/enp.hcef1.met.nc
Cube does not contain ['sea_surface_height', 'sea_surface_elevation', 'sea_surface_height_above_geoid', 'sea_surface_height_above_sea_level', 'water_surface_height_above_reference_datum', 'sea_surface_height_above_reference_ellipsoid']
08:29:55 WARNING: Cannot get cube for: http://129.252.139.124/thredds/dodsC/enp.jkyf1.met.nc
Cube does not contain ['sea_surface_height', 'sea_surface_elevation', 'sea_surface_height_above_geoid', 'sea_surface_height_above_sea_level', 'water_surface_height_above_reference_datum', 'sea_surface_height_above_reference_ellipsoid']
08:29:59 WARNING: Cannot get cube for: http://129.252.139.124/thredds/dodsC/enp.wrbf1.met.nc
Cube does not contain ['sea_surface_height', 'sea_surface_elevation', 'sea_surface_height_above_geoid', 'sea_surface_height_above_sea_level', 'water_surface_height_above_reference_datum', 'sea_surface_height_above_reference_ellipsoid']
08:30:05 WARNING: Cannot get cube for: http://129.252.139.124/thredds/dodsC/enp.gbif1.met.nc
Cube does not contain ['sea_surface_height', 'sea_surface_elevation', 'sea_surface_height_above_geoid', 'sea_surface_height_above_sea_level', 'water_surface_height_above_reference_datum', 'sea_surface_height_above_reference_ellipsoid']
08:30:11 WARNING: Cannot get cube for: http://129.252.139.124/thredds/dodsC/enp.ppta1.met.nc
Cube does not contain ['sea_surface_height', 'sea_surface_elevation', 'sea_surface_height_above_geoid', 'sea_surface_height_above_sea_level', 'water_surface_height_above_reference_datum', 'sea_surface_height_above_reference_ellipsoid']
08:30:15 WARNING: Cannot get cube for: http://129.252.139.124/thredds/dodsC/enp.bdvf1.met.nc
Cube does not contain ['sea_surface_height', 'sea_surface_elevation', 'sea_surface_height_above_geoid', 'sea_surface_height_above_sea_level', 'water_surface_height_above_reference_datum', 'sea_surface_height_above_reference_ellipsoid']
08:30:21 WARNING: Cannot get cube for: http://129.252.139.124/thredds/dodsC/enp.lrkf1.met.nc
Cube does not contain ['sea_surface_height', 'sea_surface_elevation', 'sea_surface_height_above_geoid', 'sea_surface_height_above_sea_level', 'water_surface_height_above_reference_datum', 'sea_surface_height_above_reference_ellipsoid']
08:30:26 WARNING: Cannot get cube for: http://129.252.139.124/thredds/dodsC/enp.bnkf1.met.nc
Cube does not contain ['sea_surface_height', 'sea_surface_elevation', 'sea_surface_height_above_geoid', 'sea_surface_height_above_sea_level', 'water_surface_height_above_reference_datum', 'sea_surface_height_above_reference_ellipsoid']
08:30:31 WARNING: Cannot get cube for: http://129.252.139.124/thredds/dodsC/enp.gbtf1.met.nc
Cube does not contain ['sea_surface_height', 'sea_surface_elevation', 'sea_surface_height_above_geoid', 'sea_surface_height_above_sea_level', 'water_surface_height_above_reference_datum', 'sea_surface_height_above_reference_ellipsoid']
08:30:37 WARNING: Cannot get cube for: http://129.252.139.124/thredds/dodsC/enp.tcvf1.met.nc
Cube does not contain ['sea_surface_height', 'sea_surface_elevation', 'sea_surface_height_above_geoid', 'sea_surface_height_above_sea_level', 'water_surface_height_above_reference_datum', 'sea_surface_height_above_reference_ellipsoid']
08:30:42 WARNING: Cannot get cube for: http://129.252.139.124/thredds/dodsC/enp.canf1.met.nc
Cube does not contain ['sea_surface_height', 'sea_surface_elevation', 'sea_surface_height_above_geoid', 'sea_surface_height_above_sea_level', 'water_surface_height_above_reference_datum', 'sea_surface_height_above_reference_ellipsoid']
08:30:47 WARNING: Cannot get cube for: http://129.252.139.124/thredds/dodsC/enp.lbsf1.met.nc
Cube does not contain ['sea_surface_height', 'sea_surface_elevation', 'sea_surface_height_above_geoid', 'sea_surface_height_above_sea_level', 'water_surface_height_above_reference_datum', 'sea_surface_height_above_reference_ellipsoid']
08:30:52 WARNING: Cannot get cube for: http://129.252.139.124/thredds/dodsC/enp.mukf1.met.nc
Cube does not contain ['sea_surface_height', 'sea_surface_elevation', 'sea_surface_height_above_geoid', 'sea_surface_height_above_sea_level', 'water_surface_height_above_reference_datum', 'sea_surface_height_above_reference_ellipsoid']
08:30:58 WARNING: Cannot get cube for: http://129.252.139.124/thredds/dodsC/enp.dkkf1.met.nc
Cube does not contain ['sea_surface_height', 'sea_surface_elevation', 'sea_surface_height_above_geoid', 'sea_surface_height_above_sea_level', 'water_surface_height_above_reference_datum', 'sea_surface_height_above_reference_ellipsoid']
08:31:03 WARNING: Cannot get cube for: http://129.252.139.124/thredds/dodsC/enp.cwaf1.met.nc
Cube does not contain ['sea_surface_height', 'sea_surface_elevation', 'sea_surface_height_above_geoid', 'sea_surface_height_above_sea_level', 'water_surface_height_above_reference_datum', 'sea_surface_height_above_reference_ellipsoid']
08:31:18 WARNING: /home/filipe/miniconda/envs/SECOORA/lib/python2.7/site-packages/iris/fileformats/_pyke_rules/compiled_krb/fc_rules_cf_fc.py:1196: UserWarning: Ignoring netCDF variable 'phosphate' invalid units 'uM'
  warnings.warn(msg.format(msg_name, msg_units))

08:31:18 WARNING: /home/filipe/miniconda/envs/SECOORA/lib/python2.7/site-packages/iris/fileformats/_pyke_rules/compiled_krb/fc_rules_cf_fc.py:1196: UserWarning: Ignoring netCDF variable 'photosynthetically_available_radiation' invalid units 'micromoles_per_m^2'
  warnings.warn(msg.format(msg_name, msg_units))

08:31:18 WARNING: Cannot get cube for: http://129.252.139.124/thredds/dodsC/fau.lobo.1.nc
Cube does not contain ['sea_surface_height', 'sea_surface_elevation', 'sea_surface_height_above_geoid', 'sea_surface_height_above_sea_level', 'water_surface_height_above_reference_datum', 'sea_surface_height_above_reference_ellipsoid']
08:31:42 INFO: ********************* Collector offerings **********************
08:31:42 INFO: NOAA.NOS.CO-OPS SOS: 1030 offerings
08:31:47 INFO: SOS URL request: http://opendap.co-ops.nos.noaa.gov/ioos-dif-sos/SOS?eventTime=2014-06-30T12%3A00%3A00Z&service=SOS&offering=urn%3Aioos%3Anetwork%3ANOAA.NOS.CO-OPS%3AWaterLevelActive&request=GetObservation&version=1.0.0&responseFormat=text%2Fcsv&featureOfInterest=BBOX%3A-87.4%2C24.25%2C-74.7%2C36.7&observedProperty=water_surface_height_above_reference_datum
08:33:07 INFO: ************************* Observations *************************
08:33:07 INFO: **** Downloading to file 2014-07-07/2014-07-07-OBS_DATA.nc *****
08:33:16 WARNING: [8654467] USCG Station Hatteras, NC:
'Wrong Datum for this station: The correct Datum values are: MHHW, MHW, MTL, MSL, MLW, MLLW, STND'
08:33:17 WARNING: [8656483] Beaufort, NC:
'Wrong Datum for this station: The correct Datum values are: MHHW, MHW, MTL, MSL, MLW, MLLW, STND'
08:33:19 WARNING: [8658120] Wilmington, NC:
'Wrong Datum for this station: The correct Datum values are: MHHW, MHW, MTL, MSL, MLW, MLLW, STND'
08:35:09 WARNING: [8726520] St Petersburg, FL:
'Wrong Datum for this station: The correct Datum values are: MHHW, MHW, MTL, MSL, MLW, MLLW, STND'
08:35:27 WARNING: [8729210] Panama City Beach, FL:
'Wrong Datum for this station: The correct Datum values are: MHHW, MHW, MTL, MSL, MLW, MLLW, STND'
08:35:40 INFO: ********************* SECOORA Observations *********************
08:35:40 INFO:  Downloading to file 2014-07-07/2014-07-07-SECOORA_OBS_DATA.nc *
08:35:40 INFO: **************************** Models ****************************
08:35:40 INFO: 
[Reading url 1/11]: http://crow.marine.usf.edu:8080/thredds/dodsC/FVCOM-Nowcast-Agg.nc
08:35:51 INFO: 
[Reading url 2/11]: http://crow.marine.usf.edu:8080/thredds/dodsC/WFS_ROMS_NF_model/USF_Ocean_Circulation_Group_West_Florida_Shelf_Daily_ROMS_Nowcast_Forecast_Model_Data_best.ncd
08:35:56 INFO: 
[Reading url 3/11]: http://geoport-dev.whoi.edu/thredds/dodsC/estofs/atlantic
08:36:39 INFO: 
[Reading url 4/11]: http://geoport.whoi.edu/thredds/dodsC/coawst_4/use/fmrc/coawst_4_use_best.ncd
08:37:09 INFO: 
[Reading url 5/11]: http://omgsrv1.meas.ncsu.edu:8080/thredds/dodsC/fmrc/sabgom/SABGOM_Forecast_Model_Run_Collection_best.ncd
08:37:37 WARNING: Cannot get cube for: http://omgsrv1.meas.ncsu.edu:8080/thredds/dodsC/fmrc/sabgom/SABGOM_Forecast_Model_Run_Collection_best.ncd
istart must be different from istop! Got istart 0 and  istop 0
08:37:37 INFO: 
[Reading url 6/11]: http://oos.soest.hawaii.edu/thredds/dodsC/hioos/tide_pac
08:37:44 INFO: 
[Reading url 7/11]: http://oos.soest.hawaii.edu/thredds/dodsC/pacioos/hycom/global
08:37:47 INFO: 
[Reading url 8/11]: http://tds.marine.rutgers.edu/thredds/dodsC/roms/espresso/2013_da/his_Best/ESPRESSO_Real-Time_v2_History_Best_Available_best.ncd
08:37:58 INFO: 
[Reading url 9/11]: http://www.smast.umassd.edu:8080/thredds/dodsC/FVCOM/NECOFS/Forecasts/NECOFS_WAVE_FORECAST.nc
08:38:02 WARNING: Cannot get cube for: http://www.smast.umassd.edu:8080/thredds/dodsC/FVCOM/NECOFS/Forecasts/NECOFS_WAVE_FORECAST.nc
'Expected to find exactly 1  coordinate, but found none.'
08:38:02 INFO: 
[Reading url 10/11]: http://omgsrv1.meas.ncsu.edu:8080/thredds/dodsC/fmrc/us_east/US_East_Forecast_Model_Run_Collection_best.ncd
08:38:35 WARNING: Cannot get cube for: http://omgsrv1.meas.ncsu.edu:8080/thredds/dodsC/fmrc/us_east/US_East_Forecast_Model_Run_Collection_best.ncd
istart must be different from istop! Got istart 0 and  istop 0
08:38:35 INFO: 
[Reading url 11/11]: http://crow.marine.usf.edu:8080/thredds/dodsC/WFS_SWAN_NF_model/USF_Ocean_Circulation_Group_West_Florida_Shelf_Daily_SWAN_Nowcast_Forecast_Wave_Model_Data_best.ncd
08:38:36 WARNING: Cannot get cube for: http://crow.marine.usf.edu:8080/thredds/dodsC/WFS_SWAN_NF_model/USF_Ocean_Circulation_Group_West_Florida_Shelf_Daily_SWAN_Nowcast_Forecast_Wave_Model_Data_best.ncd
Cube does not contain ['sea_surface_height', 'sea_surface_elevation', 'sea_surface_height_above_geoid', 'sea_surface_height_above_sea_level', 'water_surface_height_above_reference_datum', 'sea_surface_height_above_reference_ellipsoid']
08:38:36 INFO: ******** Saving to file 2014-07-07/2014-07-07-ESTOFS.nc ********
08:38:44 INFO: [Water] Duck, NC
08:38:48 INFO: [Water] Oregon Inlet Marina, NC
08:38:56 INFO: [Water] USCG Station Hatteras, NC
08:39:01 INFO: [Water] Beaufort, NC
08:39:01 INFO: [No Data] Wilmington, NC
08:39:12 INFO: [Water] Wrightsville Beach, NC
08:39:25 INFO: [Water] Springmaid Pier, SC
08:39:30 INFO: [Water] Oyster Landing (N Inlet Estuary), SC
08:39:30 INFO: [No Data] Charleston, SC
08:39:32 INFO: [Water] Fernandina Beach, FL
08:39:35 INFO: [Water] Mayport (Bar Pilots Dock), FL
08:39:35 INFO: [No Data] Dames Point, FL
08:39:35 INFO: [No Data] Southbank Riverwalk, St Johns River, FL
08:39:35 INFO: [No Data] I-295 Bridge, St Johns River, FL
08:39:35 INFO: [No Data] Red Bay Point, St Johns River, FL
08:39:35 INFO: [No Data] Racy Point, St Johns River, FL
08:39:42 INFO: [Water] Trident Pier, FL
08:39:49 INFO: [Water] Lake Worth Pier, FL
08:40:04 INFO: [Water] Vaca Key, FL
08:40:15 INFO: [Water] Key West, FL
08:40:25 INFO: [Water] Naples, FL
08:40:25 INFO: [No Data] Fort Myers, FL
08:40:39 INFO: [Water] Port Manatee, FL
08:40:51 INFO: [Water] St Petersburg, FL
08:41:05 INFO: [Water] Cedar Key, FL
08:41:16 INFO: [Water] Apalachicola, FL
08:41:16 INFO: [No Data] Panama City, FL
08:41:23 INFO: [Water] Panama City Beach, FL
08:41:23 INFO: [No Data] Pensacola, FL
08:41:28 INFO: [Water] Tolomato River station
08:41:41 INFO: [Water] Fred Howard Park
08:41:42 INFO: [Water] 
08:41:49 INFO: [Water] Big Carlos Pass
08:42:02 INFO: [Water] Shell Point
08:42:08 INFO: [Water] St Lucie Inlet station
08:42:11 INFO: [Water] Naples Bay station
08:42:15 INFO: [Water] Vero Beach station
08:42:22 INFO: [Water] Ponce De Leon South station
08:42:24 INFO: [Water] Melbourne station
08:42:33 INFO: [Water] Aripeka
08:42:39 INFO: [Water] Bing&#39;s Landing station
08:42:45 INFO: [Water] Binney Dock station
08:42:53 INFO: [Water] Gordon River Inlet station
08:42:53 INFO: Finished processing [ESTOFS]: http://crow.marine.usf.edu:8080/thredds/dodsC/WFS_SWAN_NF_model/USF_Ocean_Circulation_Group_West_Florida_Shelf_Daily_SWAN_Nowcast_Forecast_Wave_Model_Data_best.ncd
08:42:53 INFO: ******** Saving to file 2014-07-07/2014-07-07-BTMPB.nc *********
08:42:53 INFO: [No Data] Duck, NC
08:42:53 INFO: [No Data] Oregon Inlet Marina, NC
08:42:53 INFO: [No Data] USCG Station Hatteras, NC
08:42:53 INFO: [No Data] Beaufort, NC
08:42:53 INFO: [No Data] Wilmington, NC
08:42:53 INFO: [No Data] Wrightsville Beach, NC
08:42:53 INFO: [No Data] Springmaid Pier, SC
08:42:53 INFO: [No Data] Oyster Landing (N Inlet Estuary), SC
08:42:53 INFO: [No Data] Charleston, SC
08:42:53 INFO: [No Data] Fernandina Beach, FL
08:42:53 INFO: [No Data] Mayport (Bar Pilots Dock), FL
08:42:53 INFO: [No Data] Dames Point, FL
08:42:53 INFO: [No Data] Southbank Riverwalk, St Johns River, FL
08:42:53 INFO: [No Data] I-295 Bridge, St Johns River, FL
08:42:53 INFO: [No Data] Red Bay Point, St Johns River, FL
08:42:53 INFO: [No Data] Racy Point, St Johns River, FL
08:42:53 INFO: [No Data] Trident Pier, FL
08:42:53 INFO: [No Data] Lake Worth Pier, FL
08:42:53 INFO: [No Data] Vaca Key, FL
08:42:53 INFO: [No Data] Key West, FL
08:42:53 INFO: [No Data] Naples, FL
08:42:53 INFO: [No Data] Fort Myers, FL
08:42:53 INFO: [No Data] Port Manatee, FL
08:42:53 INFO: [No Data] St Petersburg, FL
08:42:53 INFO: [No Data] Cedar Key, FL
08:42:53 INFO: [No Data] Apalachicola, FL
08:42:53 INFO: [No Data] Panama City, FL
08:42:53 INFO: [No Data] Panama City Beach, FL
08:42:53 INFO: [No Data] Pensacola, FL
08:42:53 INFO: [No Data] Tolomato River station
08:42:53 INFO: [No Data] Fred Howard Park
08:42:53 INFO: [No Data] 
08:42:53 INFO: [No Data] Big Carlos Pass
08:42:53 INFO: [No Data] Shell Point
08:42:53 INFO: [No Data] St Lucie Inlet station
08:42:53 INFO: [No Data] Naples Bay station
08:42:53 INFO: [No Data] Vero Beach station
08:42:53 INFO: [No Data] Ponce De Leon South station
08:42:53 INFO: [No Data] Melbourne station
08:42:53 INFO: [No Data] Aripeka
08:42:53 INFO: [No Data] Bing&#39;s Landing station
08:42:53 INFO: [No Data] Binney Dock station
08:42:53 INFO: [No Data] Gordon River Inlet station
08:42:53 INFO: Finished processing [BTMPB]: http://crow.marine.usf.edu:8080/thredds/dodsC/WFS_SWAN_NF_model/USF_Ocean_Circulation_Group_West_Florida_Shelf_Daily_SWAN_Nowcast_Forecast_Wave_Model_Data_best.ncd
08:42:53 INFO: ******** Saving to file 2014-07-07/2014-07-07-HYCOM.nc *********
08:43:20 INFO: [Land ] Duck, NC
08:43:24 INFO: [Water] Oregon Inlet Marina, NC
08:43:27 INFO: [Land ] USCG Station Hatteras, NC
08:43:30 INFO: [Land ] Beaufort, NC
08:43:33 INFO: [Land ] Wilmington, NC
08:43:37 INFO: [Water] Wrightsville Beach, NC
08:43:37 INFO: [No Data] Springmaid Pier, SC
08:43:40 INFO: [Land ] Oyster Landing (N Inlet Estuary), SC
08:43:43 INFO: [Land ] Charleston, SC
08:43:46 INFO: [Land ] Fernandina Beach, FL
08:43:49 INFO: [Land ] Mayport (Bar Pilots Dock), FL
08:43:53 INFO: [Land ] Dames Point, FL
08:43:56 INFO: [Land ] Southbank Riverwalk, St Johns River, FL
08:43:59 INFO: [Land ] I-295 Bridge, St Johns River, FL
08:44:02 INFO: [Land ] Red Bay Point, St Johns River, FL
08:44:02 INFO: [No Data] Racy Point, St Johns River, FL
08:44:09 INFO: [Land ] Trident Pier, FL
08:44:12 INFO: [Water] Lake Worth Pier, FL
08:44:15 INFO: [Land ] Vaca Key, FL
08:44:18 INFO: [Land ] Key West, FL
08:44:18 INFO: [No Data] Naples, FL
08:44:21 INFO: [Land ] Fort Myers, FL
08:44:25 INFO: [Land ] Port Manatee, FL
08:44:28 INFO: [Land ] St Petersburg, FL
08:44:31 INFO: [Land ] Cedar Key, FL
08:44:34 INFO: [Land ] Apalachicola, FL
08:44:37 INFO: [Land ] Panama City, FL
08:44:37 INFO: [No Data] Panama City Beach, FL
08:44:41 INFO: [Land ] Pensacola, FL
08:44:44 INFO: [Land ] Tolomato River station
08:44:47 INFO: [Land ] Fred Howard Park
08:44:50 INFO: [Land ] 
08:44:50 INFO: [No Data] Big Carlos Pass
08:44:53 INFO: [Land ] Shell Point
08:44:56 INFO: [Land ] St Lucie Inlet station
08:45:00 INFO: [Land ] Naples Bay station
08:45:03 INFO: [Land ] Vero Beach station
08:45:06 INFO: [Water] Ponce De Leon South station
08:45:10 INFO: [Land ] Melbourne station
08:45:13 INFO: [Land ] Aripeka
08:45:16 INFO: [Land ] Bing&#39;s Landing station
08:45:19 INFO: [Land ] Binney Dock station
08:45:22 INFO: [Land ] Gordon River Inlet station
08:45:22 INFO: Finished processing [HYCOM]: http://crow.marine.usf.edu:8080/thredds/dodsC/WFS_SWAN_NF_model/USF_Ocean_Circulation_Group_West_Florida_Shelf_Daily_SWAN_Nowcast_Forecast_Wave_Model_Data_best.ncd
08:45:22 INFO: ******* Saving to file 2014-07-07/2014-07-07-USF_ROMS.nc *******
08:45:22 INFO: [No Data] Duck, NC
08:45:22 INFO: [No Data] Oregon Inlet Marina, NC
08:45:22 INFO: [No Data] USCG Station Hatteras, NC
08:45:22 INFO: [No Data] Beaufort, NC
08:45:22 INFO: [No Data] Wilmington, NC
08:45:22 INFO: [No Data] Wrightsville Beach, NC
08:45:22 INFO: [No Data] Springmaid Pier, SC
08:45:22 INFO: [No Data] Oyster Landing (N Inlet Estuary), SC
08:45:22 INFO: [No Data] Charleston, SC
08:45:22 INFO: [No Data] Fernandina Beach, FL
08:45:22 INFO: [No Data] Mayport (Bar Pilots Dock), FL
08:45:22 INFO: [No Data] Dames Point, FL
08:45:22 INFO: [No Data] Southbank Riverwalk, St Johns River, FL
08:45:22 INFO: [No Data] I-295 Bridge, St Johns River, FL
08:45:22 INFO: [No Data] Red Bay Point, St Johns River, FL
08:45:22 INFO: [No Data] Racy Point, St Johns River, FL
08:45:22 INFO: [No Data] Trident Pier, FL
08:45:22 INFO: [No Data] Lake Worth Pier, FL
08:45:22 INFO: [No Data] Vaca Key, FL
08:45:22 INFO: [No Data] Key West, FL
08:45:24 INFO: [Water] Naples, FL
08:45:27 INFO: [Water] Fort Myers, FL
08:45:31 INFO: [Water] Port Manatee, FL
08:45:31 INFO: [No Data] St Petersburg, FL
08:45:37 INFO: [Water] Cedar Key, FL
08:45:41 INFO: [Water] Apalachicola, FL
08:45:45 INFO: [Water] Panama City, FL
08:45:49 INFO: [Water] Panama City Beach, FL
08:45:49 INFO: [No Data] Pensacola, FL
08:45:49 INFO: [No Data] Tolomato River station
08:45:50 INFO: [Water] Fred Howard Park
08:45:54 INFO: [Water] 
08:45:56 INFO: [Water] Big Carlos Pass
08:46:02 INFO: [Water] Shell Point
08:46:02 INFO: [No Data] St Lucie Inlet station
08:46:04 INFO: [Water] Naples Bay station
08:46:04 INFO: [No Data] Vero Beach station
08:46:04 INFO: [No Data] Ponce De Leon South station
08:46:04 INFO: [No Data] Melbourne station
08:46:09 INFO: [Water] Aripeka
08:46:09 INFO: [No Data] Bing&#39;s Landing station
08:46:09 INFO: [No Data] Binney Dock station
08:46:11 INFO: [Water] Gordon River Inlet station
08:46:34 INFO: Finished processing [USF_ROMS]: http://crow.marine.usf.edu:8080/thredds/dodsC/WFS_SWAN_NF_model/USF_Ocean_Circulation_Group_West_Florida_Shelf_Daily_SWAN_Nowcast_Forecast_Wave_Model_Data_best.ncd
08:46:34 INFO: ****** Saving to file 2014-07-07/2014-07-07-USF_FVCOM.nc *******
08:46:34 INFO: [No Data] Duck, NC
08:46:34 INFO: [No Data] Oregon Inlet Marina, NC
08:46:34 INFO: [No Data] USCG Station Hatteras, NC
08:46:34 INFO: [No Data] Beaufort, NC
08:46:34 INFO: [No Data] Wilmington, NC
08:46:34 INFO: [No Data] Wrightsville Beach, NC
08:46:34 INFO: [No Data] Springmaid Pier, SC
08:46:34 INFO: [No Data] Oyster Landing (N Inlet Estuary), SC
08:46:34 INFO: [No Data] Charleston, SC
08:46:34 INFO: [No Data] Fernandina Beach, FL
08:46:34 INFO: [No Data] Mayport (Bar Pilots Dock), FL
08:46:34 INFO: [No Data] Dames Point, FL
08:46:34 INFO: [No Data] Southbank Riverwalk, St Johns River, FL
08:46:34 INFO: [No Data] I-295 Bridge, St Johns River, FL
08:46:34 INFO: [No Data] Red Bay Point, St Johns River, FL
08:46:34 INFO: [No Data] Racy Point, St Johns River, FL
08:46:34 INFO: [No Data] Trident Pier, FL
08:46:34 INFO: [No Data] Lake Worth Pier, FL
08:47:01 INFO: [Water] Vaca Key, FL
08:47:18 INFO: [Water] Key West, FL
08:47:43 INFO: [Water] Naples, FL
08:48:02 INFO: [Water] Fort Myers, FL
08:48:27 INFO: [Water] Port Manatee, FL
08:48:42 INFO: [Water] St Petersburg, FL
08:48:55 INFO: [Water] Cedar Key, FL
08:49:08 INFO: [Water] Apalachicola, FL
08:49:08 INFO: [No Data] Panama City, FL
08:49:17 INFO: [Water] Panama City Beach, FL
08:49:17 INFO: [No Data] Pensacola, FL
08:49:17 INFO: [No Data] Tolomato River station
08:49:37 INFO: [Water] Fred Howard Park
08:49:42 INFO: [Water] 
08:50:05 INFO: [Water] Big Carlos Pass
08:50:19 INFO: [Water] Shell Point
08:50:19 INFO: [No Data] St Lucie Inlet station
08:50:29 INFO: [Water] Naples Bay station
08:50:29 INFO: [No Data] Vero Beach station
08:50:29 INFO: [No Data] Ponce De Leon South station
08:50:29 INFO: [No Data] Melbourne station
08:50:41 INFO: [Water] Aripeka
08:50:41 INFO: [No Data] Bing&#39;s Landing station
08:50:41 INFO: [No Data] Binney Dock station
08:50:55 INFO: [Water] Gordon River Inlet station
08:50:55 INFO: Finished processing [USF_FVCOM]: http://crow.marine.usf.edu:8080/thredds/dodsC/WFS_SWAN_NF_model/USF_Ocean_Circulation_Group_West_Florida_Shelf_Daily_SWAN_Nowcast_Forecast_Wave_Model_Data_best.ncd
08:50:55 INFO: ******* Saving to file 2014-07-07/2014-07-07-COAWST_4.nc *******
08:51:03 INFO: [Land ] Duck, NC
08:51:14 INFO: [Water] Oregon Inlet Marina, NC
08:51:19 INFO: [Water] USCG Station Hatteras, NC
08:51:30 INFO: [Land ] Beaufort, NC
08:51:35 INFO: [Land ] Wilmington, NC
08:51:41 INFO: [Water] Wrightsville Beach, NC
08:51:52 INFO: [Water] Springmaid Pier, SC
08:51:57 INFO: [Land ] Oyster Landing (N Inlet Estuary), SC
08:52:02 INFO: [Land ] Charleston, SC
08:52:08 INFO: [Land ] Fernandina Beach, FL
08:52:14 INFO: [Land ] Mayport (Bar Pilots Dock), FL
08:52:20 INFO: [Land ] Dames Point, FL
08:52:26 INFO: [Land ] Southbank Riverwalk, St Johns River, FL
08:52:33 INFO: [Land ] I-295 Bridge, St Johns River, FL
08:52:38 INFO: [Land ] Red Bay Point, St Johns River, FL
08:52:44 INFO: [Land ] Racy Point, St Johns River, FL
08:52:51 INFO: [Land ] Trident Pier, FL
08:53:03 INFO: [Water] Lake Worth Pier, FL
08:53:10 INFO: [Land ] Vaca Key, FL
08:53:22 INFO: [Water] Key West, FL
08:53:29 INFO: [Land ] Naples, FL
08:53:35 INFO: [Land ] Fort Myers, FL
08:53:42 INFO: [Land ] Port Manatee, FL
08:53:48 INFO: [Land ] St Petersburg, FL
08:54:02 INFO: [Water] Cedar Key, FL
08:54:08 INFO: [Water] Apalachicola, FL
08:54:15 INFO: [Water] Panama City, FL
08:54:28 INFO: [Land ] Panama City Beach, FL
08:54:35 INFO: [Water] Pensacola, FL
08:54:40 INFO: [Land ] Tolomato River station
08:54:47 INFO: [Land ] Fred Howard Park
08:54:53 INFO: [Land ] 
08:54:59 INFO: [Water] Big Carlos Pass
08:55:06 INFO: [Land ] Shell Point
08:55:19 INFO: [Water] St Lucie Inlet station
08:55:25 INFO: [Land ] Naples Bay station
08:55:37 INFO: [Land ] Vero Beach station
08:55:43 INFO: [Water] Ponce De Leon South station
08:55:49 INFO: [Land ] Melbourne station
08:55:55 INFO: [Land ] Aripeka
08:56:02 INFO: [Land ] Bing&#39;s Landing station
08:56:16 INFO: [Land ] Binney Dock station
08:56:23 INFO: [Land ] Gordon River Inlet station
08:57:36 INFO: Finished processing [COAWST_4]: http://crow.marine.usf.edu:8080/thredds/dodsC/WFS_SWAN_NF_model/USF_Ocean_Circulation_Group_West_Florida_Shelf_Daily_SWAN_Nowcast_Forecast_Wave_Model_Data_best.ncd
08:57:36 INFO: ******* Saving to file 2014-07-07/2014-07-07-ESPRESSO.nc *******
08:57:43 INFO: [Land ] Duck, NC
08:57:46 INFO: [Water] Oregon Inlet Marina, NC
08:57:48 INFO: [Land ] USCG Station Hatteras, NC
08:57:51 INFO: [Water] Beaufort, NC
08:57:51 INFO: [No Data] Wilmington, NC
08:57:51 INFO: [No Data] Wrightsville Beach, NC
08:57:51 INFO: [No Data] Springmaid Pier, SC
08:57:51 INFO: [No Data] Oyster Landing (N Inlet Estuary), SC
08:57:51 INFO: [No Data] Charleston, SC
08:57:51 INFO: [No Data] Fernandina Beach, FL
08:57:51 INFO: [No Data] Mayport (Bar Pilots Dock), FL
08:57:51 INFO: [No Data] Dames Point, FL
08:57:51 INFO: [No Data] Southbank Riverwalk, St Johns River, FL
08:57:51 INFO: [No Data] I-295 Bridge, St Johns River, FL
08:57:51 INFO: [No Data] Red Bay Point, St Johns River, FL
08:57:51 INFO: [No Data] Racy Point, St Johns River, FL
08:57:51 INFO: [No Data] Trident Pier, FL
08:57:51 INFO: [No Data] Lake Worth Pier, FL
08:57:51 INFO: [No Data] Vaca Key, FL
08:57:51 INFO: [No Data] Key West, FL
08:57:51 INFO: [No Data] Naples, FL
08:57:51 INFO: [No Data] Fort Myers, FL
08:57:51 INFO: [No Data] Port Manatee, FL
08:57:51 INFO: [No Data] St Petersburg, FL
08:57:51 INFO: [No Data] Cedar Key, FL
08:57:51 INFO: [No Data] Apalachicola, FL
08:57:51 INFO: [No Data] Panama City, FL
08:57:51 INFO: [No Data] Panama City Beach, FL
08:57:51 INFO: [No Data] Pensacola, FL
08:57:51 INFO: [No Data] Tolomato River station
08:57:51 INFO: [No Data] Fred Howard Park
08:57:51 INFO: [No Data] 
08:57:51 INFO: [No Data] Big Carlos Pass
08:57:51 INFO: [No Data] Shell Point
08:57:51 INFO: [No Data] St Lucie Inlet station
08:57:51 INFO: [No Data] Naples Bay station
08:57:51 INFO: [No Data] Vero Beach station
08:57:51 INFO: [No Data] Ponce De Leon South station
08:57:51 INFO: [No Data] Melbourne station
08:57:51 INFO: [No Data] Aripeka
08:57:51 INFO: [No Data] Bing&#39;s Landing station
08:57:51 INFO: [No Data] Binney Dock station
08:57:51 INFO: [No Data] Gordon River Inlet station
08:57:57 INFO: Finished processing [ESPRESSO]: http://crow.marine.usf.edu:8080/thredds/dodsC/WFS_SWAN_NF_model/USF_Ocean_Circulation_Group_West_Florida_Shelf_Daily_SWAN_Nowcast_Forecast_Wave_Model_Data_best.ncd
08:57:57 WARNING: /home/filipe/miniconda/envs/SECOORA/lib/python2.7/site-packages/pandas/util/decorators.py:81: FutureWarning: the 'cols' keyword is deprecated, use 'subset' instead
  warnings.warn(msg, FutureWarning)

08:58:01 WARNING: /home/filipe/miniconda/envs/SECOORA/lib/python2.7/site-packages/numpy/core/_methods.py:59: RuntimeWarning: Mean of empty slice.
  warnings.warn("Mean of empty slice.", RuntimeWarning)

08:58:18 INFO: 33.58 minutes
08:58:18 INFO: EOF
