09:52:29 INFO: ************Saving data inside directory 2014-07-07*************
09:52:29 INFO: *********************** Run information ************************
09:52:29 INFO: Run date: 2015-08-03 12:52:29
09:52:29 INFO: Download start: 2014-07-01 12:00:00
09:52:29 INFO: Download stop: 2014-07-07 12:00:00
09:52:29 INFO: Bounding box: -87.40, 24.25,-74.70, 36.70
09:52:29 INFO: *********************** Software version ***********************
09:52:29 INFO: Iris version: 1.8.1
09:52:29 INFO: owslib version: 0.9.0
09:52:29 INFO: pyoos version: 0.6.2
09:52:33 INFO: ********************* Catalog information **********************
09:52:33 INFO: URL: http://www.ngdc.noaa.gov/geoportal/csw
09:52:33 INFO: CSW version: 2.0.2
09:52:33 INFO: Number of datasets available: 23
09:52:33 INFO: ***************************** CSW ******************************
09:52:33 INFO: USF FVCOM - Nowcast Aggregation
09:52:33 INFO: ROMS/TOMS 3.0 - New Floria Shelf Application
09:52:33 INFO: ROMS/TOMS 3.0 - South-Atlantic Bight and Gulf of Mexico
09:52:33 INFO: COAWST Forecast System : USGS : US East Coast and Gulf of Mexico (Experimental)
09:52:33 INFO: ROMS ESPRESSO Real-Time Operational IS4DVAR Forecast System Version 2 (NEW) 2013-present FMRC History (Best)
09:52:33 INFO: Barotropic Tide Model for the Pacific Basin
09:52:33 INFO: HYbrid Coordinate Ocean Model (HYCOM): Global
09:52:33 INFO: ESTOFS Storm Surge Model - Atlantic - v1.0.0 - NOAA - NCEP - ADCIRC
09:52:33 INFO: usf.apk.ngwlms
09:52:33 INFO: usf.bcp.ngwlms
09:52:33 INFO: usf.fhp.ngwlms
09:52:33 INFO: usf.shp.ngwlms
09:52:33 INFO: usf.tas.ngwlms
09:52:33 INFO: fldep.bingslanding.
09:52:33 INFO: fldep.binneydock.
09:52:33 INFO: fldep.gordonriverinlet.
09:52:33 INFO: fldep.melbourne.
09:52:33 INFO: fldep.naplesbay.
09:52:33 INFO: fldep.poncedeleonsouth.
09:52:33 INFO: fldep.redbaypoint.
09:52:33 INFO: fldep.stlucieinlet.
09:52:33 INFO: fldep.tolomatoriver.
09:52:33 INFO: fldep.verobeach.
09:52:33 INFO: ***************************** DAP ******************************
09:52:33 INFO: http://crow.marine.usf.edu:8080/thredds/dodsC/FVCOM-Nowcast-Agg.nc.html
09:52:33 INFO: http://crow.marine.usf.edu:8080/thredds/dodsC/WFS_ROMS_NF_model/USF_Ocean_Circulation_Group_West_Florida_Shelf_Daily_ROMS_Nowcast_Forecast_Model_Data_best.ncd.html
09:52:33 INFO: http://geoport-dev.whoi.edu/thredds/dodsC/estofs/atlantic.html
09:52:33 INFO: http://geoport.whoi.edu/thredds/dodsC/coawst_4/use/fmrc/coawst_4_use_best.ncd.html
09:52:33 INFO: http://omgsrv1.meas.ncsu.edu:8080/thredds/dodsC/fmrc/sabgom/SABGOM_Forecast_Model_Run_Collection_best.ncd.html
09:52:33 INFO: http://oos.soest.hawaii.edu/thredds/dodsC/hioos/tide_pac.html
09:52:33 INFO: http://oos.soest.hawaii.edu/thredds/dodsC/pacioos/hycom/global.html
09:52:33 INFO: http://tds.marine.rutgers.edu/thredds/dodsC/roms/espresso/2013_da/his_Best/ESPRESSO_Real-Time_v2_History_Best_Available_best.ncd.html
09:52:33 INFO: http://tds.secoora.org/thredds/dodsC/fldep.bingslanding..nc.html
09:52:33 INFO: http://tds.secoora.org/thredds/dodsC/fldep.binneydock..nc.html
09:52:33 INFO: http://tds.secoora.org/thredds/dodsC/fldep.gordonriverinlet..nc.html
09:52:33 INFO: http://tds.secoora.org/thredds/dodsC/fldep.melbourne..nc.html
09:52:33 INFO: http://tds.secoora.org/thredds/dodsC/fldep.naplesbay..nc.html
09:52:33 INFO: http://tds.secoora.org/thredds/dodsC/fldep.poncedeleonsouth..nc.html
09:52:33 INFO: http://tds.secoora.org/thredds/dodsC/fldep.redbaypoint..nc.html
09:52:33 INFO: http://tds.secoora.org/thredds/dodsC/fldep.stlucieinlet..nc.html
09:52:33 INFO: http://tds.secoora.org/thredds/dodsC/fldep.tolomatoriver..nc.html
09:52:33 INFO: http://tds.secoora.org/thredds/dodsC/fldep.verobeach..nc.html
09:52:33 INFO: http://tds.secoora.org/thredds/dodsC/usf.apk.ngwlms.nc.html
09:52:33 INFO: http://tds.secoora.org/thredds/dodsC/usf.bcp.ngwlms.nc.html
09:52:33 INFO: http://tds.secoora.org/thredds/dodsC/usf.fhp.ngwlms.nc.html
09:52:33 INFO: http://tds.secoora.org/thredds/dodsC/usf.shp.ngwlms.nc.html
09:52:33 INFO: http://tds.secoora.org/thredds/dodsC/usf.tas.ngwlms.nc.html
09:52:33 INFO: ***************************** SOS ******************************
09:52:33 INFO: http://tds.secoora.org/thredds/sos/fldep.bingslanding..nc?service=SOS&version=1.0.0&request=GetCapabilities
09:52:33 INFO: http://tds.secoora.org/thredds/sos/fldep.binneydock..nc?service=SOS&version=1.0.0&request=GetCapabilities
09:52:33 INFO: http://tds.secoora.org/thredds/sos/fldep.gordonriverinlet..nc?service=SOS&version=1.0.0&request=GetCapabilities
09:52:33 INFO: http://tds.secoora.org/thredds/sos/fldep.melbourne..nc?service=SOS&version=1.0.0&request=GetCapabilities
09:52:33 INFO: http://tds.secoora.org/thredds/sos/fldep.naplesbay..nc?service=SOS&version=1.0.0&request=GetCapabilities
09:52:33 INFO: http://tds.secoora.org/thredds/sos/fldep.poncedeleonsouth..nc?service=SOS&version=1.0.0&request=GetCapabilities
09:52:33 INFO: http://tds.secoora.org/thredds/sos/fldep.redbaypoint..nc?service=SOS&version=1.0.0&request=GetCapabilities
09:52:33 INFO: http://tds.secoora.org/thredds/sos/fldep.stlucieinlet..nc?service=SOS&version=1.0.0&request=GetCapabilities
09:52:33 INFO: http://tds.secoora.org/thredds/sos/fldep.tolomatoriver..nc?service=SOS&version=1.0.0&request=GetCapabilities
09:52:33 INFO: http://tds.secoora.org/thredds/sos/fldep.verobeach..nc?service=SOS&version=1.0.0&request=GetCapabilities
09:52:33 INFO: http://tds.secoora.org/thredds/sos/usf.apk.ngwlms.nc?service=SOS&version=1.0.0&request=GetCapabilities
09:52:33 INFO: http://tds.secoora.org/thredds/sos/usf.bcp.ngwlms.nc?service=SOS&version=1.0.0&request=GetCapabilities
09:52:33 INFO: http://tds.secoora.org/thredds/sos/usf.fhp.ngwlms.nc?service=SOS&version=1.0.0&request=GetCapabilities
09:52:33 INFO: http://tds.secoora.org/thredds/sos/usf.shp.ngwlms.nc?service=SOS&version=1.0.0&request=GetCapabilities
09:52:33 INFO: http://tds.secoora.org/thredds/sos/usf.tas.ngwlms.nc?service=SOS&version=1.0.0&request=GetCapabilities
09:52:33 WARNING: USEAST not in the NGDC csw
09:52:33 WARNING: USF_SWAN not in the NGDC csw
09:52:39 WARNING: Cannot get cube for: http://129.252.139.124/thredds/dodsC/fit.sispnj.met.nc
Cannot find ['sea_surface_height', 'sea_surface_elevation', 'sea_surface_height_above_geoid', 'sea_surface_height_above_sea_level', 'water_surface_height_above_reference_datum', 'sea_surface_height_above_reference_ellipsoid'] in http://129.252.139.124/thredds/dodsC/fit.sispnj.met.nc.
09:52:43 WARNING: Cannot get cube for: http://129.252.139.124/thredds/dodsC/usf.nfb.ngwlms.nc
Cannot find ['sea_surface_height', 'sea_surface_elevation', 'sea_surface_height_above_geoid', 'sea_surface_height_above_sea_level', 'water_surface_height_above_reference_datum', 'sea_surface_height_above_reference_ellipsoid'] in http://129.252.139.124/thredds/dodsC/usf.nfb.ngwlms.nc.
09:52:54 WARNING: Cannot get cube for: http://129.252.139.124/thredds/dodsC/usf.c21.weatherpak.nc
Cannot find ['sea_surface_height', 'sea_surface_elevation', 'sea_surface_height_above_geoid', 'sea_surface_height_above_sea_level', 'water_surface_height_above_reference_datum', 'sea_surface_height_above_reference_ellipsoid'] in http://129.252.139.124/thredds/dodsC/usf.c21.weatherpak.nc.
09:53:18 WARNING: Cannot get cube for: http://129.252.139.124/thredds/dodsC/usf.c10.mcat.nc
Cannot find ['sea_surface_height', 'sea_surface_elevation', 'sea_surface_height_above_geoid', 'sea_surface_height_above_sea_level', 'water_surface_height_above_reference_datum', 'sea_surface_height_above_reference_ellipsoid'] in http://129.252.139.124/thredds/dodsC/usf.c10.mcat.nc.
09:53:28 WARNING: Cannot get cube for: http://129.252.139.124/thredds/dodsC/c10_salinity_water_temp.nc
Cannot find ['sea_surface_height', 'sea_surface_elevation', 'sea_surface_height_above_geoid', 'sea_surface_height_above_sea_level', 'water_surface_height_above_reference_datum', 'sea_surface_height_above_reference_ellipsoid'] in http://129.252.139.124/thredds/dodsC/c10_salinity_water_temp.nc.
09:53:42 WARNING: Cannot get cube for: http://129.252.139.124/thredds/dodsC/QC_C10_Temp_full.nc
Cannot find ['sea_surface_height', 'sea_surface_elevation', 'sea_surface_height_above_geoid', 'sea_surface_height_above_sea_level', 'water_surface_height_above_reference_datum', 'sea_surface_height_above_reference_ellipsoid'] in http://129.252.139.124/thredds/dodsC/QC_C10_Temp_full.nc.
09:53:51 WARNING: Cannot get cube for: http://129.252.139.124/thredds/dodsC/QC_C10_Sal_full.nc
Cannot find ['sea_surface_height', 'sea_surface_elevation', 'sea_surface_height_above_geoid', 'sea_surface_height_above_sea_level', 'water_surface_height_above_reference_datum', 'sea_surface_height_above_reference_ellipsoid'] in http://129.252.139.124/thredds/dodsC/QC_C10_Sal_full.nc.
09:53:54 WARNING: Cannot get cube for: http://129.252.139.124/thredds/dodsC/usf.c12.mcat.nc
Cannot find ['sea_surface_height', 'sea_surface_elevation', 'sea_surface_height_above_geoid', 'sea_surface_height_above_sea_level', 'water_surface_height_above_reference_datum', 'sea_surface_height_above_reference_ellipsoid'] in http://129.252.139.124/thredds/dodsC/usf.c12.mcat.nc.
09:53:58 WARNING: Cannot get cube for: http://129.252.139.124/thredds/dodsC/usf.c13.mcat.nc
Cannot find ['sea_surface_height', 'sea_surface_elevation', 'sea_surface_height_above_geoid', 'sea_surface_height_above_sea_level', 'water_surface_height_above_reference_datum', 'sea_surface_height_above_reference_ellipsoid'] in http://129.252.139.124/thredds/dodsC/usf.c13.mcat.nc.
09:54:02 WARNING: Cannot get cube for: http://129.252.139.124/thredds/dodsC/usf.c10.mcat_2011.nc
Cannot find ['sea_surface_height', 'sea_surface_elevation', 'sea_surface_height_above_geoid', 'sea_surface_height_above_sea_level', 'water_surface_height_above_reference_datum', 'sea_surface_height_above_reference_ellipsoid'] in http://129.252.139.124/thredds/dodsC/usf.c10.mcat_2011.nc.
09:54:06 WARNING: Cannot get cube for: http://129.252.139.124/thredds/dodsC/usf.c12.mcat_2011.nc
Cannot find ['sea_surface_height', 'sea_surface_elevation', 'sea_surface_height_above_geoid', 'sea_surface_height_above_sea_level', 'water_surface_height_above_reference_datum', 'sea_surface_height_above_reference_ellipsoid'] in http://129.252.139.124/thredds/dodsC/usf.c12.mcat_2011.nc.
09:54:10 WARNING: Cannot get cube for: http://129.252.139.124/thredds/dodsC/usf.c13.mcat_2011.nc
Cannot find ['sea_surface_height', 'sea_surface_elevation', 'sea_surface_height_above_geoid', 'sea_surface_height_above_sea_level', 'water_surface_height_above_reference_datum', 'sea_surface_height_above_reference_ellipsoid'] in http://129.252.139.124/thredds/dodsC/usf.c13.mcat_2011.nc.
09:54:14 WARNING: Cannot get cube for: http://129.252.139.124/thredds/dodsC/carocoops.sun2.buoy.nc
Cannot find ['sea_surface_height', 'sea_surface_elevation', 'sea_surface_height_above_geoid', 'sea_surface_height_above_sea_level', 'water_surface_height_above_reference_datum', 'sea_surface_height_above_reference_ellipsoid'] in http://129.252.139.124/thredds/dodsC/carocoops.sun2.buoy.nc.
09:54:19 WARNING: Cannot get cube for: http://129.252.139.124/thredds/dodsC/carocoops.frp2.buoy.nc
Cannot find ['sea_surface_height', 'sea_surface_elevation', 'sea_surface_height_above_geoid', 'sea_surface_height_above_sea_level', 'water_surface_height_above_reference_datum', 'sea_surface_height_above_reference_ellipsoid'] in http://129.252.139.124/thredds/dodsC/carocoops.frp2.buoy.nc.
09:54:24 WARNING: Cannot get cube for: http://129.252.139.124/thredds/dodsC/carocoops.cap2.buoy.nc
Cannot find ['sea_surface_height', 'sea_surface_elevation', 'sea_surface_height_above_geoid', 'sea_surface_height_above_sea_level', 'water_surface_height_above_reference_datum', 'sea_surface_height_above_reference_ellipsoid'] in http://129.252.139.124/thredds/dodsC/carocoops.cap2.buoy.nc.
09:54:32 WARNING: Cannot get cube for: http://129.252.139.124/thredds/dodsC/cormp.ilm3.buoy.nc
Cannot find ['sea_surface_height', 'sea_surface_elevation', 'sea_surface_height_above_geoid', 'sea_surface_height_above_sea_level', 'water_surface_height_above_reference_datum', 'sea_surface_height_above_reference_ellipsoid'] in http://129.252.139.124/thredds/dodsC/cormp.ilm3.buoy.nc.
09:54:43 WARNING: Cannot get cube for: http://129.252.139.124/thredds/dodsC/cormp.ilm2.buoy.nc
Cannot find ['sea_surface_height', 'sea_surface_elevation', 'sea_surface_height_above_geoid', 'sea_surface_height_above_sea_level', 'water_surface_height_above_reference_datum', 'sea_surface_height_above_reference_ellipsoid'] in http://129.252.139.124/thredds/dodsC/cormp.ilm2.buoy.nc.
09:54:44 WARNING: Cannot get cube for: http://129.252.139.124/thredds/dodsC/cormp.ilm1.buoy.nc
Cannot find ['sea_surface_height', 'sea_surface_elevation', 'sea_surface_height_above_geoid', 'sea_surface_height_above_sea_level', 'water_surface_height_above_reference_datum', 'sea_surface_height_above_reference_ellipsoid'] in http://129.252.139.124/thredds/dodsC/cormp.ilm1.buoy.nc.
09:54:51 WARNING: Cannot get cube for: http://129.252.139.124/thredds/dodsC/cormp.lej3.buoy.nc
Cannot find ['sea_surface_height', 'sea_surface_elevation', 'sea_surface_height_above_geoid', 'sea_surface_height_above_sea_level', 'water_surface_height_above_reference_datum', 'sea_surface_height_above_reference_ellipsoid'] in http://129.252.139.124/thredds/dodsC/cormp.lej3.buoy.nc.
09:54:56 WARNING: Cannot get cube for: http://129.252.139.124/thredds/dodsC/sccf.gulfofmexico.wq.nc
Cannot find ['sea_surface_height', 'sea_surface_elevation', 'sea_surface_height_above_geoid', 'sea_surface_height_above_sea_level', 'water_surface_height_above_reference_datum', 'sea_surface_height_above_reference_ellipsoid'] in http://129.252.139.124/thredds/dodsC/sccf.gulfofmexico.wq.nc.
09:55:00 WARNING: Cannot get cube for: http://129.252.139.124/thredds/dodsC/sccf.shellpoint.wq.nc
Cannot find ['sea_surface_height', 'sea_surface_elevation', 'sea_surface_height_above_geoid', 'sea_surface_height_above_sea_level', 'water_surface_height_above_reference_datum', 'sea_surface_height_above_reference_ellipsoid'] in http://129.252.139.124/thredds/dodsC/sccf.shellpoint.wq.nc.
09:55:05 WARNING: Cannot get cube for: http://129.252.139.124/thredds/dodsC/sccf.redfishpass.wq.nc
Cannot find ['sea_surface_height', 'sea_surface_elevation', 'sea_surface_height_above_geoid', 'sea_surface_height_above_sea_level', 'water_surface_height_above_reference_datum', 'sea_surface_height_above_reference_ellipsoid'] in http://129.252.139.124/thredds/dodsC/sccf.redfishpass.wq.nc.
09:55:10 WARNING: Cannot get cube for: http://129.252.139.124/thredds/dodsC/sccf.tarponbay.wq.nc
Cannot find ['sea_surface_height', 'sea_surface_elevation', 'sea_surface_height_above_geoid', 'sea_surface_height_above_sea_level', 'water_surface_height_above_reference_datum', 'sea_surface_height_above_reference_ellipsoid'] in http://129.252.139.124/thredds/dodsC/sccf.tarponbay.wq.nc.
09:55:15 WARNING: Cannot get cube for: http://129.252.139.124/thredds/dodsC/sccf.fortmyers.wq.nc
Cannot find ['sea_surface_height', 'sea_surface_elevation', 'sea_surface_height_above_geoid', 'sea_surface_height_above_sea_level', 'water_surface_height_above_reference_datum', 'sea_surface_height_above_reference_ellipsoid'] in http://129.252.139.124/thredds/dodsC/sccf.fortmyers.wq.nc.
09:55:55 WARNING: Cannot get cube for: http://129.252.139.124/thredds/dodsC/fldep.redbaypoint..nc
istart must be different from istop! Got istart 43 and  istop 43
09:56:55 WARNING: Cannot get cube for: http://129.252.139.124/thredds/dodsC/lbhmc.2ndave.pier.nc
Cannot find ['sea_surface_height', 'sea_surface_elevation', 'sea_surface_height_above_geoid', 'sea_surface_height_above_sea_level', 'water_surface_height_above_reference_datum', 'sea_surface_height_above_reference_ellipsoid'] in http://129.252.139.124/thredds/dodsC/lbhmc.2ndave.pier.nc.
09:57:01 WARNING: Cannot get cube for: http://129.252.139.124/thredds/dodsC/lbhmc.cherrygrove.pier.nc
Cannot find ['sea_surface_height', 'sea_surface_elevation', 'sea_surface_height_above_geoid', 'sea_surface_height_above_sea_level', 'water_surface_height_above_reference_datum', 'sea_surface_height_above_reference_ellipsoid'] in http://129.252.139.124/thredds/dodsC/lbhmc.cherrygrove.pier.nc.
09:57:09 WARNING: Cannot get cube for: http://129.252.139.124/thredds/dodsC/lbhmc.apachepier.pier.nc
Cannot find ['sea_surface_height', 'sea_surface_elevation', 'sea_surface_height_above_geoid', 'sea_surface_height_above_sea_level', 'water_surface_height_above_reference_datum', 'sea_surface_height_above_reference_ellipsoid'] in http://129.252.139.124/thredds/dodsC/lbhmc.apachepier.pier.nc.
09:57:15 WARNING: Cannot get cube for: http://129.252.139.124/thredds/dodsC/enp.wiwf1.met.nc
Cannot find ['sea_surface_height', 'sea_surface_elevation', 'sea_surface_height_above_geoid', 'sea_surface_height_above_sea_level', 'water_surface_height_above_reference_datum', 'sea_surface_height_above_reference_ellipsoid'] in http://129.252.139.124/thredds/dodsC/enp.wiwf1.met.nc.
09:57:19 WARNING: Cannot get cube for: http://129.252.139.124/thredds/dodsC/enp.lbrf1.met.nc
Cannot find ['sea_surface_height', 'sea_surface_elevation', 'sea_surface_height_above_geoid', 'sea_surface_height_above_sea_level', 'water_surface_height_above_reference_datum', 'sea_surface_height_above_reference_ellipsoid'] in http://129.252.139.124/thredds/dodsC/enp.lbrf1.met.nc.
09:57:23 WARNING: Cannot get cube for: http://129.252.139.124/thredds/dodsC/enp.bobf1.met.nc
Cannot find ['sea_surface_height', 'sea_surface_elevation', 'sea_surface_height_above_geoid', 'sea_surface_height_above_sea_level', 'water_surface_height_above_reference_datum', 'sea_surface_height_above_reference_ellipsoid'] in http://129.252.139.124/thredds/dodsC/enp.bobf1.met.nc.
09:57:27 WARNING: Cannot get cube for: http://129.252.139.124/thredds/dodsC/enp.trrf1.met.nc
Cannot find ['sea_surface_height', 'sea_surface_elevation', 'sea_surface_height_above_geoid', 'sea_surface_height_above_sea_level', 'water_surface_height_above_reference_datum', 'sea_surface_height_above_reference_ellipsoid'] in http://129.252.139.124/thredds/dodsC/enp.trrf1.met.nc.
09:57:32 WARNING: Cannot get cube for: http://129.252.139.124/thredds/dodsC/enp.wwef1.met.nc
Cannot find ['sea_surface_height', 'sea_surface_elevation', 'sea_surface_height_above_geoid', 'sea_surface_height_above_sea_level', 'water_surface_height_above_reference_datum', 'sea_surface_height_above_reference_ellipsoid'] in http://129.252.139.124/thredds/dodsC/enp.wwef1.met.nc.
09:57:36 WARNING: Cannot get cube for: http://129.252.139.124/thredds/dodsC/enp.lrif1.met.nc
Cannot find ['sea_surface_height', 'sea_surface_elevation', 'sea_surface_height_above_geoid', 'sea_surface_height_above_sea_level', 'water_surface_height_above_reference_datum', 'sea_surface_height_above_reference_ellipsoid'] in http://129.252.139.124/thredds/dodsC/enp.lrif1.met.nc.
09:57:40 WARNING: Cannot get cube for: http://129.252.139.124/thredds/dodsC/enp.bwsf1.met.nc
Cannot find ['sea_surface_height', 'sea_surface_elevation', 'sea_surface_height_above_geoid', 'sea_surface_height_above_sea_level', 'water_surface_height_above_reference_datum', 'sea_surface_height_above_reference_ellipsoid'] in http://129.252.139.124/thredds/dodsC/enp.bwsf1.met.nc.
09:57:44 WARNING: Cannot get cube for: http://129.252.139.124/thredds/dodsC/enp.pkyf1.met.nc
Cannot find ['sea_surface_height', 'sea_surface_elevation', 'sea_surface_height_above_geoid', 'sea_surface_height_above_sea_level', 'water_surface_height_above_reference_datum', 'sea_surface_height_above_reference_ellipsoid'] in http://129.252.139.124/thredds/dodsC/enp.pkyf1.met.nc.
09:57:48 WARNING: Cannot get cube for: http://129.252.139.124/thredds/dodsC/enp.lmdf1.met.nc
Cannot find ['sea_surface_height', 'sea_surface_elevation', 'sea_surface_height_above_geoid', 'sea_surface_height_above_sea_level', 'water_surface_height_above_reference_datum', 'sea_surface_height_above_reference_ellipsoid'] in http://129.252.139.124/thredds/dodsC/enp.lmdf1.met.nc.
09:57:52 WARNING: Cannot get cube for: http://129.252.139.124/thredds/dodsC/enp.cnbf1.met.nc
Cannot find ['sea_surface_height', 'sea_surface_elevation', 'sea_surface_height_above_geoid', 'sea_surface_height_above_sea_level', 'water_surface_height_above_reference_datum', 'sea_surface_height_above_reference_ellipsoid'] in http://129.252.139.124/thredds/dodsC/enp.cnbf1.met.nc.
09:57:56 WARNING: Cannot get cube for: http://129.252.139.124/thredds/dodsC/enp.hcef1.met.nc
Cannot find ['sea_surface_height', 'sea_surface_elevation', 'sea_surface_height_above_geoid', 'sea_surface_height_above_sea_level', 'water_surface_height_above_reference_datum', 'sea_surface_height_above_reference_ellipsoid'] in http://129.252.139.124/thredds/dodsC/enp.hcef1.met.nc.
09:58:00 WARNING: Cannot get cube for: http://129.252.139.124/thredds/dodsC/enp.jkyf1.met.nc
Cannot find ['sea_surface_height', 'sea_surface_elevation', 'sea_surface_height_above_geoid', 'sea_surface_height_above_sea_level', 'water_surface_height_above_reference_datum', 'sea_surface_height_above_reference_ellipsoid'] in http://129.252.139.124/thredds/dodsC/enp.jkyf1.met.nc.
09:58:04 WARNING: Cannot get cube for: http://129.252.139.124/thredds/dodsC/enp.wrbf1.met.nc
Cannot find ['sea_surface_height', 'sea_surface_elevation', 'sea_surface_height_above_geoid', 'sea_surface_height_above_sea_level', 'water_surface_height_above_reference_datum', 'sea_surface_height_above_reference_ellipsoid'] in http://129.252.139.124/thredds/dodsC/enp.wrbf1.met.nc.
09:58:09 WARNING: Cannot get cube for: http://129.252.139.124/thredds/dodsC/enp.gbif1.met.nc
Cannot find ['sea_surface_height', 'sea_surface_elevation', 'sea_surface_height_above_geoid', 'sea_surface_height_above_sea_level', 'water_surface_height_above_reference_datum', 'sea_surface_height_above_reference_ellipsoid'] in http://129.252.139.124/thredds/dodsC/enp.gbif1.met.nc.
09:58:12 WARNING: Cannot get cube for: http://129.252.139.124/thredds/dodsC/enp.ppta1.met.nc
Cannot find ['sea_surface_height', 'sea_surface_elevation', 'sea_surface_height_above_geoid', 'sea_surface_height_above_sea_level', 'water_surface_height_above_reference_datum', 'sea_surface_height_above_reference_ellipsoid'] in http://129.252.139.124/thredds/dodsC/enp.ppta1.met.nc.
09:58:16 WARNING: Cannot get cube for: http://129.252.139.124/thredds/dodsC/enp.bdvf1.met.nc
Cannot find ['sea_surface_height', 'sea_surface_elevation', 'sea_surface_height_above_geoid', 'sea_surface_height_above_sea_level', 'water_surface_height_above_reference_datum', 'sea_surface_height_above_reference_ellipsoid'] in http://129.252.139.124/thredds/dodsC/enp.bdvf1.met.nc.
09:58:20 WARNING: Cannot get cube for: http://129.252.139.124/thredds/dodsC/enp.lrkf1.met.nc
Cannot find ['sea_surface_height', 'sea_surface_elevation', 'sea_surface_height_above_geoid', 'sea_surface_height_above_sea_level', 'water_surface_height_above_reference_datum', 'sea_surface_height_above_reference_ellipsoid'] in http://129.252.139.124/thredds/dodsC/enp.lrkf1.met.nc.
09:58:24 WARNING: Cannot get cube for: http://129.252.139.124/thredds/dodsC/enp.bnkf1.met.nc
Cannot find ['sea_surface_height', 'sea_surface_elevation', 'sea_surface_height_above_geoid', 'sea_surface_height_above_sea_level', 'water_surface_height_above_reference_datum', 'sea_surface_height_above_reference_ellipsoid'] in http://129.252.139.124/thredds/dodsC/enp.bnkf1.met.nc.
09:58:28 WARNING: Cannot get cube for: http://129.252.139.124/thredds/dodsC/enp.gbtf1.met.nc
Cannot find ['sea_surface_height', 'sea_surface_elevation', 'sea_surface_height_above_geoid', 'sea_surface_height_above_sea_level', 'water_surface_height_above_reference_datum', 'sea_surface_height_above_reference_ellipsoid'] in http://129.252.139.124/thredds/dodsC/enp.gbtf1.met.nc.
09:58:33 WARNING: Cannot get cube for: http://129.252.139.124/thredds/dodsC/enp.tcvf1.met.nc
Cannot find ['sea_surface_height', 'sea_surface_elevation', 'sea_surface_height_above_geoid', 'sea_surface_height_above_sea_level', 'water_surface_height_above_reference_datum', 'sea_surface_height_above_reference_ellipsoid'] in http://129.252.139.124/thredds/dodsC/enp.tcvf1.met.nc.
09:58:37 WARNING: Cannot get cube for: http://129.252.139.124/thredds/dodsC/enp.canf1.met.nc
Cannot find ['sea_surface_height', 'sea_surface_elevation', 'sea_surface_height_above_geoid', 'sea_surface_height_above_sea_level', 'water_surface_height_above_reference_datum', 'sea_surface_height_above_reference_ellipsoid'] in http://129.252.139.124/thredds/dodsC/enp.canf1.met.nc.
09:58:41 WARNING: Cannot get cube for: http://129.252.139.124/thredds/dodsC/enp.lbsf1.met.nc
Cannot find ['sea_surface_height', 'sea_surface_elevation', 'sea_surface_height_above_geoid', 'sea_surface_height_above_sea_level', 'water_surface_height_above_reference_datum', 'sea_surface_height_above_reference_ellipsoid'] in http://129.252.139.124/thredds/dodsC/enp.lbsf1.met.nc.
09:58:45 WARNING: Cannot get cube for: http://129.252.139.124/thredds/dodsC/enp.mukf1.met.nc
Cannot find ['sea_surface_height', 'sea_surface_elevation', 'sea_surface_height_above_geoid', 'sea_surface_height_above_sea_level', 'water_surface_height_above_reference_datum', 'sea_surface_height_above_reference_ellipsoid'] in http://129.252.139.124/thredds/dodsC/enp.mukf1.met.nc.
09:58:49 WARNING: Cannot get cube for: http://129.252.139.124/thredds/dodsC/enp.dkkf1.met.nc
Cannot find ['sea_surface_height', 'sea_surface_elevation', 'sea_surface_height_above_geoid', 'sea_surface_height_above_sea_level', 'water_surface_height_above_reference_datum', 'sea_surface_height_above_reference_ellipsoid'] in http://129.252.139.124/thredds/dodsC/enp.dkkf1.met.nc.
09:58:52 WARNING: Cannot get cube for: http://129.252.139.124/thredds/dodsC/enp.cwaf1.met.nc
Cannot find ['sea_surface_height', 'sea_surface_elevation', 'sea_surface_height_above_geoid', 'sea_surface_height_above_sea_level', 'water_surface_height_above_reference_datum', 'sea_surface_height_above_reference_ellipsoid'] in http://129.252.139.124/thredds/dodsC/enp.cwaf1.met.nc.
09:59:03 WARNING: Cannot get cube for: http://129.252.139.124/thredds/dodsC/fau.lobo.1.nc
Cannot find ['sea_surface_height', 'sea_surface_elevation', 'sea_surface_height_above_geoid', 'sea_surface_height_above_sea_level', 'water_surface_height_above_reference_datum', 'sea_surface_height_above_reference_ellipsoid'] in http://129.252.139.124/thredds/dodsC/fau.lobo.1.nc.
09:59:14 INFO: ********************* Collector offerings **********************
09:59:14 INFO: NOAA.NOS.CO-OPS SOS: 1048 offerings
09:59:19 INFO: SOS URL request: http://opendap.co-ops.nos.noaa.gov/ioos-dif-sos/SOS?eventTime=2014-07-01T12%3A00%3A00Z&service=SOS&offering=urn%3Aioos%3Anetwork%3ANOAA.NOS.CO-OPS%3AWaterLevelActive&request=GetObservation&version=1.0.0&responseFormat=text%2Fcsv&featureOfInterest=BBOX%3A-87.4%2C24.25%2C-74.7%2C36.7&observedProperty=water_surface_height_above_reference_datum
10:00:41 INFO: ************************* Observations *************************
10:00:41 INFO: ********** Downloading to file 2014-07-07/config.pkl ***********
10:00:51 WARNING: [8654467] USCG Station Hatteras, NC:
'Wrong Datum for this station: The correct Datum values are: MHHW, MHW, MTL, MSL, MLW, MLLW, STND'
10:00:54 WARNING: [8656483] Beaufort, NC:
'Wrong Datum for this station: The correct Datum values are: MHHW, MHW, MTL, MSL, MLW, MLLW, STND'
10:00:56 WARNING: [8658120] Wilmington, NC:
'Wrong Datum for this station: The correct Datum values are: MHHW, MHW, MTL, MSL, MLW, MLLW, STND'
10:01:55 WARNING: [8726520] St Petersburg, FL:
'Wrong Datum for this station: The correct Datum values are: MHHW, MHW, MTL, MSL, MLW, MLLW, STND'
10:01:57 WARNING: [8726607] Old Port Tampa, FL:
'Wrong Datum for this station: The correct Datum values are: MHHW, MHW, MTL, MSL, MLW, MLLW, STND'
10:02:17 WARNING: [8729210] Panama City Beach, FL:
'Wrong Datum for this station: The correct Datum values are: MHHW, MHW, MTL, MSL, MLW, MLLW, STND'
10:02:21 WARNING: /home/filipe/miniconda/envs/SECOORA/lib/python2.7/site-packages/iris/fileformats/netcdf.py:1783: UserWarning: NetCDF default saving behaviour currently assigns the outermost dimensions to unlimited. This behaviour is to be deprecated, in favour of no automatic assignment. To switch to the new behaviour, set iris.FUTURE.netcdf_no_unlimited to True.
  warnings.warn(msg)

10:02:21 INFO: ********************* SECOORA Observations *********************
10:02:21 INFO:  Downloading to file 2014-07-07/2014-07-07-SECOORA_OBS_DATA.nc *
10:02:21 INFO: **************************** Models ****************************
10:02:21 INFO: 
[Reading url 1/25]: http://crow.marine.usf.edu:8080/thredds/dodsC/FVCOM-Nowcast-Agg.nc
10:02:32 INFO: 
[Reading url 2/25]: http://crow.marine.usf.edu:8080/thredds/dodsC/WFS_ROMS_NF_model/USF_Ocean_Circulation_Group_West_Florida_Shelf_Daily_ROMS_Nowcast_Forecast_Model_Data_best.ncd
10:02:37 INFO: 
[Reading url 3/25]: http://geoport-dev.whoi.edu/thredds/dodsC/estofs/atlantic
10:02:38 WARNING: Cannot get cube for: http://geoport-dev.whoi.edu/thredds/dodsC/estofs/atlantic
NetCDF: Malformed or inaccessible DAP DDS
10:02:38 INFO: 
[Reading url 4/25]: http://geoport.whoi.edu/thredds/dodsC/coawst_4/use/fmrc/coawst_4_use_best.ncd
10:03:30 INFO: 
[Reading url 5/25]: http://omgarch1.meas.ncsu.edu:8080/thredds/dodsC/fmrc/sabgom/SABGOM_Forecast_Model_Run_Collection_best.ncd
10:03:48 INFO: 
[Reading url 6/25]: http://oos.soest.hawaii.edu/thredds/dodsC/hioos/tide_pac
10:03:54 INFO: 
[Reading url 7/25]: http://oos.soest.hawaii.edu/thredds/dodsC/pacioos/hycom/global
10:03:57 INFO: 
[Reading url 8/25]: http://tds.marine.rutgers.edu/thredds/dodsC/roms/espresso/2013_da/his_Best/ESPRESSO_Real-Time_v2_History_Best_Available_best.ncd
10:04:07 INFO: 
[Reading url 9/25]: http://tds.secoora.org/thredds/dodsC/fldep.bingslanding..nc
10:04:15 WARNING: [Not model data]: http://tds.secoora.org/thredds/dodsC/fldep.bingslanding..nc
10:04:15 INFO: 
[Reading url 10/25]: http://tds.secoora.org/thredds/dodsC/fldep.binneydock..nc
10:04:23 WARNING: [Not model data]: http://tds.secoora.org/thredds/dodsC/fldep.binneydock..nc
10:04:23 INFO: 
[Reading url 11/25]: http://tds.secoora.org/thredds/dodsC/fldep.gordonriverinlet..nc
10:04:29 WARNING: [Not model data]: http://tds.secoora.org/thredds/dodsC/fldep.gordonriverinlet..nc
10:04:29 INFO: 
[Reading url 12/25]: http://tds.secoora.org/thredds/dodsC/fldep.melbourne..nc
10:04:35 WARNING: [Not model data]: http://tds.secoora.org/thredds/dodsC/fldep.melbourne..nc
10:04:35 INFO: 
[Reading url 13/25]: http://tds.secoora.org/thredds/dodsC/fldep.naplesbay..nc
10:04:45 WARNING: [Not model data]: http://tds.secoora.org/thredds/dodsC/fldep.naplesbay..nc
10:04:45 INFO: 
[Reading url 14/25]: http://tds.secoora.org/thredds/dodsC/fldep.poncedeleonsouth..nc
10:05:01 WARNING: [Not model data]: http://tds.secoora.org/thredds/dodsC/fldep.poncedeleonsouth..nc
10:05:01 INFO: 
[Reading url 15/25]: http://tds.secoora.org/thredds/dodsC/fldep.redbaypoint..nc
10:05:03 WARNING: [Not model data]: http://tds.secoora.org/thredds/dodsC/fldep.redbaypoint..nc
10:05:03 INFO: 
[Reading url 16/25]: http://tds.secoora.org/thredds/dodsC/fldep.stlucieinlet..nc
10:05:17 WARNING: [Not model data]: http://tds.secoora.org/thredds/dodsC/fldep.stlucieinlet..nc
10:05:17 INFO: 
[Reading url 17/25]: http://tds.secoora.org/thredds/dodsC/fldep.tolomatoriver..nc
10:05:26 WARNING: [Not model data]: http://tds.secoora.org/thredds/dodsC/fldep.tolomatoriver..nc
10:05:26 INFO: 
[Reading url 18/25]: http://tds.secoora.org/thredds/dodsC/fldep.verobeach..nc
10:05:36 WARNING: [Not model data]: http://tds.secoora.org/thredds/dodsC/fldep.verobeach..nc
10:05:36 INFO: 
[Reading url 19/25]: http://tds.secoora.org/thredds/dodsC/usf.apk.ngwlms.nc
10:05:42 WARNING: [Not model data]: http://tds.secoora.org/thredds/dodsC/usf.apk.ngwlms.nc
10:05:42 INFO: 
[Reading url 20/25]: http://tds.secoora.org/thredds/dodsC/usf.bcp.ngwlms.nc
10:05:49 WARNING: [Not model data]: http://tds.secoora.org/thredds/dodsC/usf.bcp.ngwlms.nc
10:05:49 INFO: 
[Reading url 21/25]: http://tds.secoora.org/thredds/dodsC/usf.fhp.ngwlms.nc
10:05:55 WARNING: [Not model data]: http://tds.secoora.org/thredds/dodsC/usf.fhp.ngwlms.nc
10:05:55 INFO: 
[Reading url 22/25]: http://tds.secoora.org/thredds/dodsC/usf.shp.ngwlms.nc
10:06:02 WARNING: [Not model data]: http://tds.secoora.org/thredds/dodsC/usf.shp.ngwlms.nc
10:06:02 INFO: 
[Reading url 23/25]: http://tds.secoora.org/thredds/dodsC/usf.tas.ngwlms.nc
10:06:11 WARNING: [Not model data]: http://tds.secoora.org/thredds/dodsC/usf.tas.ngwlms.nc
10:06:11 INFO: 
[Reading url 24/25]: http://omgsrv1.meas.ncsu.edu:8080/thredds/dodsC/fmrc/us_east/US_East_Forecast_Model_Run_Collection_best.ncd
10:06:32 WARNING: Cannot get cube for: http://omgsrv1.meas.ncsu.edu:8080/thredds/dodsC/fmrc/us_east/US_East_Forecast_Model_Run_Collection_best.ncd
istart must be different from istop! Got istart 0 and  istop 0
10:06:32 INFO: 
[Reading url 25/25]: http://crow.marine.usf.edu:8080/thredds/dodsC/WFS_SWAN_NF_model/USF_Ocean_Circulation_Group_West_Florida_Shelf_Daily_SWAN_Nowcast_Forecast_Wave_Model_Data_best.ncd
10:06:33 WARNING: Cannot get cube for: http://crow.marine.usf.edu:8080/thredds/dodsC/WFS_SWAN_NF_model/USF_Ocean_Circulation_Group_West_Florida_Shelf_Daily_SWAN_Nowcast_Forecast_Wave_Model_Data_best.ncd
Cannot find ['sea_surface_height', 'sea_surface_elevation', 'sea_surface_height_above_geoid', 'sea_surface_height_above_sea_level', 'water_surface_height_above_reference_datum', 'sea_surface_height_above_reference_ellipsoid'] in http://crow.marine.usf.edu:8080/thredds/dodsC/WFS_SWAN_NF_model/USF_Ocean_Circulation_Group_West_Florida_Shelf_Daily_SWAN_Nowcast_Forecast_Wave_Model_Data_best.ncd.
10:06:33 INFO: **** Saving to file 2014-07-07/2014-07-07-SABGOM_ARCHIVE.nc ****
10:06:39 INFO: [Water  ] Duck, NC
10:06:42 INFO: [Land   ] Oregon Inlet Marina, NC
10:06:45 INFO: [Water  ] USCG Station Hatteras, NC
10:06:47 INFO: [Land   ] Beaufort, NC
10:06:50 INFO: [Land   ] Wilmington, NC
10:06:52 INFO: [Water  ] Wrightsville Beach, NC
10:06:55 INFO: [Water  ] Springmaid Pier, SC
10:06:58 INFO: [Land   ] Oyster Landing (N Inlet Estuary), SC
10:07:00 INFO: [Land   ] Charleston, SC
10:07:03 INFO: [Land   ] Fernandina Beach, FL
10:07:07 INFO: [Land   ] Mayport (Bar Pilots Dock), FL
10:07:10 INFO: [Land   ] Dames Point, FL
10:07:12 INFO: [Land   ] Southbank Riverwalk, St Johns River, FL
10:07:15 INFO: [Land   ] I-295 Bridge, St Johns River, FL
10:07:17 INFO: [Land   ] Red Bay Point, St Johns River, FL
10:07:20 INFO: [Land   ] Racy Point, St Johns River, FL
10:07:25 INFO: [Land   ] Trident Pier, FL
10:07:30 INFO: [Land   ] Lake Worth Pier, FL
10:07:33 INFO: [Water  ] Virginia Key, FL
10:07:40 INFO: [Land   ] Vaca Key, FL
10:07:43 INFO: [Water  ] Key West, FL
10:07:46 INFO: [Land   ] Naples, FL
10:07:49 INFO: [Land   ] Fort Myers, FL
10:07:55 INFO: [Land   ] Port Manatee, FL
10:08:00 INFO: [Land   ] St Petersburg, FL
10:08:05 INFO: [Water  ] Old Port Tampa, FL
10:08:08 INFO: [Water  ] Cedar Key, FL
10:08:11 INFO: [Land   ] Apalachicola, FL
10:08:14 INFO: [Land   ] Panama City, FL
10:08:19 INFO: [Water  ] Panama City Beach, FL
10:08:22 INFO: [Land   ] Pensacola, FL
10:08:25 INFO: [Land   ] Tolomato River station
10:08:30 INFO: [Land   ] Fred Howard Park
10:08:33 INFO: [Land   ] usf_tas_ngwlms
10:08:36 INFO: [Land   ] Big Carlos Pass
10:08:38 INFO: [Land   ] Shell Point
10:08:44 INFO: [Water  ] St Lucie Inlet station
10:08:47 INFO: [Land   ] Naples Bay station
10:08:49 INFO: [Land   ] Vero Beach station
10:08:52 INFO: [Land   ] Ponce De Leon South station
10:08:55 INFO: [Land   ] Melbourne station
10:08:58 INFO: [Land   ] Aripeka
10:09:01 INFO: [Land   ] Bing's Landing station
10:09:04 INFO: [Land   ] Binney Dock station
10:09:08 INFO: [Land   ] Gordon River Inlet station
10:09:37 INFO: Finished processing [SABGOM_ARCHIVE]: http://crow.marine.usf.edu:8080/thredds/dodsC/WFS_SWAN_NF_model/USF_Ocean_Circulation_Group_West_Florida_Shelf_Daily_SWAN_Nowcast_Forecast_Wave_Model_Data_best.ncd
10:09:37 INFO: ******** Saving to file 2014-07-07/2014-07-07-BTMPB.nc *********
10:09:37 INFO: [No Data] Duck, NC
10:09:37 INFO: [No Data] Oregon Inlet Marina, NC
10:09:37 INFO: [No Data] USCG Station Hatteras, NC
10:09:37 INFO: [No Data] Beaufort, NC
10:09:37 INFO: [No Data] Wilmington, NC
10:09:37 INFO: [No Data] Wrightsville Beach, NC
10:09:37 INFO: [No Data] Springmaid Pier, SC
10:09:37 INFO: [No Data] Oyster Landing (N Inlet Estuary), SC
10:09:37 INFO: [No Data] Charleston, SC
10:09:37 INFO: [No Data] Fernandina Beach, FL
10:09:37 INFO: [No Data] Mayport (Bar Pilots Dock), FL
10:09:37 INFO: [No Data] Dames Point, FL
10:09:37 INFO: [No Data] Southbank Riverwalk, St Johns River, FL
10:09:37 INFO: [No Data] I-295 Bridge, St Johns River, FL
10:09:37 INFO: [No Data] Red Bay Point, St Johns River, FL
10:09:37 INFO: [No Data] Racy Point, St Johns River, FL
10:09:37 INFO: [No Data] Trident Pier, FL
10:09:37 INFO: [No Data] Lake Worth Pier, FL
10:09:37 INFO: [No Data] Virginia Key, FL
10:09:37 INFO: [No Data] Vaca Key, FL
10:09:37 INFO: [No Data] Key West, FL
10:09:37 INFO: [No Data] Naples, FL
10:09:37 INFO: [No Data] Fort Myers, FL
10:09:37 INFO: [No Data] Port Manatee, FL
10:09:37 INFO: [No Data] St Petersburg, FL
10:09:37 INFO: [No Data] Old Port Tampa, FL
10:09:37 INFO: [No Data] Cedar Key, FL
10:09:37 INFO: [No Data] Apalachicola, FL
10:09:37 INFO: [No Data] Panama City, FL
10:09:37 INFO: [No Data] Panama City Beach, FL
10:09:37 INFO: [No Data] Pensacola, FL
10:09:37 INFO: [No Data] Tolomato River station
10:09:37 INFO: [No Data] Fred Howard Park
10:09:37 INFO: [No Data] usf_tas_ngwlms
10:09:37 INFO: [No Data] Big Carlos Pass
10:09:37 INFO: [No Data] Shell Point
10:09:37 INFO: [No Data] St Lucie Inlet station
10:09:37 INFO: [No Data] Naples Bay station
10:09:37 INFO: [No Data] Vero Beach station
10:09:37 INFO: [No Data] Ponce De Leon South station
10:09:37 INFO: [No Data] Melbourne station
10:09:37 INFO: [No Data] Aripeka
10:09:37 INFO: [No Data] Bing's Landing station
10:09:37 INFO: [No Data] Binney Dock station
10:09:37 INFO: [No Data] Gordon River Inlet station
10:09:37 INFO: Finished processing [BTMPB]: http://crow.marine.usf.edu:8080/thredds/dodsC/WFS_SWAN_NF_model/USF_Ocean_Circulation_Group_West_Florida_Shelf_Daily_SWAN_Nowcast_Forecast_Wave_Model_Data_best.ncd
10:09:37 INFO: ******** Saving to file 2014-07-07/2014-07-07-HYCOM.nc *********
10:09:41 INFO: [Land   ] Duck, NC
10:09:45 INFO: [Water  ] Oregon Inlet Marina, NC
10:09:48 INFO: [Land   ] USCG Station Hatteras, NC
10:09:52 INFO: [Land   ] Beaufort, NC
10:09:56 INFO: [Land   ] Wilmington, NC
10:09:59 INFO: [Water  ] Wrightsville Beach, NC
10:09:59 INFO: [No Data] Springmaid Pier, SC
10:10:02 INFO: [Land   ] Oyster Landing (N Inlet Estuary), SC
10:10:06 INFO: [Land   ] Charleston, SC
10:10:09 INFO: [Land   ] Fernandina Beach, FL
10:10:12 INFO: [Land   ] Mayport (Bar Pilots Dock), FL
10:10:16 INFO: [Land   ] Dames Point, FL
10:10:19 INFO: [Land   ] Southbank Riverwalk, St Johns River, FL
10:10:23 INFO: [Land   ] I-295 Bridge, St Johns River, FL
10:10:29 INFO: [Land   ] Red Bay Point, St Johns River, FL
10:10:29 INFO: [No Data] Racy Point, St Johns River, FL
10:10:32 INFO: [Land   ] Trident Pier, FL
10:10:35 INFO: [Water  ] Lake Worth Pier, FL
10:10:38 INFO: [Land   ] Virginia Key, FL
10:10:41 INFO: [Land   ] Vaca Key, FL
10:10:44 INFO: [Land   ] Key West, FL
10:10:44 INFO: [No Data] Naples, FL
10:10:47 INFO: [Land   ] Fort Myers, FL
10:10:52 INFO: [Land   ] Port Manatee, FL
10:10:55 INFO: [Land   ] St Petersburg, FL
10:10:58 INFO: [Land   ] Old Port Tampa, FL
10:11:01 INFO: [Land   ] Cedar Key, FL
10:11:05 INFO: [Land   ] Apalachicola, FL
10:11:10 INFO: [Land   ] Panama City, FL
10:11:10 INFO: [No Data] Panama City Beach, FL
10:11:13 INFO: [Land   ] Pensacola, FL
10:11:17 INFO: [Land   ] Tolomato River station
10:11:20 INFO: [Land   ] Fred Howard Park
10:11:25 INFO: [Land   ] usf_tas_ngwlms
10:11:25 INFO: [No Data] Big Carlos Pass
10:11:28 INFO: [Land   ] Shell Point
10:11:31 INFO: [Land   ] St Lucie Inlet station
10:11:35 INFO: [Land   ] Naples Bay station
10:11:38 INFO: [Land   ] Vero Beach station
10:11:42 INFO: [Water  ] Ponce De Leon South station
10:11:46 INFO: [Land   ] Melbourne station
10:11:49 INFO: [Land   ] Aripeka
10:11:52 INFO: [Land   ] Bing's Landing station
10:11:55 INFO: [Land   ] Binney Dock station
10:11:59 INFO: [Land   ] Gordon River Inlet station
10:11:59 INFO: Finished processing [HYCOM]: http://crow.marine.usf.edu:8080/thredds/dodsC/WFS_SWAN_NF_model/USF_Ocean_Circulation_Group_West_Florida_Shelf_Daily_SWAN_Nowcast_Forecast_Wave_Model_Data_best.ncd
10:11:59 INFO: ******* Saving to file 2014-07-07/2014-07-07-USF_ROMS.nc *******
10:11:59 INFO: [No Data] Duck, NC
10:11:59 INFO: [No Data] Oregon Inlet Marina, NC
10:11:59 INFO: [No Data] USCG Station Hatteras, NC
10:11:59 INFO: [No Data] Beaufort, NC
10:11:59 INFO: [No Data] Wilmington, NC
10:11:59 INFO: [No Data] Wrightsville Beach, NC
10:11:59 INFO: [No Data] Springmaid Pier, SC
10:11:59 INFO: [No Data] Oyster Landing (N Inlet Estuary), SC
10:11:59 INFO: [No Data] Charleston, SC
10:11:59 INFO: [No Data] Fernandina Beach, FL
10:11:59 INFO: [No Data] Mayport (Bar Pilots Dock), FL
10:11:59 INFO: [No Data] Dames Point, FL
10:11:59 INFO: [No Data] Southbank Riverwalk, St Johns River, FL
10:11:59 INFO: [No Data] I-295 Bridge, St Johns River, FL
10:11:59 INFO: [No Data] Red Bay Point, St Johns River, FL
10:11:59 INFO: [No Data] Racy Point, St Johns River, FL
10:11:59 INFO: [No Data] Trident Pier, FL
10:11:59 INFO: [No Data] Lake Worth Pier, FL
10:11:59 INFO: [No Data] Virginia Key, FL
10:11:59 INFO: [No Data] Vaca Key, FL
10:11:59 INFO: [No Data] Key West, FL
10:12:00 INFO: [Water  ] Naples, FL
10:12:02 INFO: [Water  ] Fort Myers, FL
10:12:04 INFO: [Water  ] Port Manatee, FL
10:12:04 INFO: [No Data] St Petersburg, FL
10:12:06 INFO: [Water  ] Old Port Tampa, FL
10:12:11 INFO: [Water  ] Cedar Key, FL
10:12:14 INFO: [Water  ] Apalachicola, FL
10:12:17 INFO: [Water  ] Panama City, FL
10:12:20 INFO: [Water  ] Panama City Beach, FL
10:12:20 INFO: [No Data] Pensacola, FL
10:12:20 INFO: [No Data] Tolomato River station
10:12:22 INFO: [Water  ] Fred Howard Park
10:12:25 INFO: [Water  ] usf_tas_ngwlms
10:12:26 INFO: [Water  ] Big Carlos Pass
10:12:31 INFO: [Water  ] Shell Point
10:12:31 INFO: [No Data] St Lucie Inlet station
10:12:32 INFO: [Water  ] Naples Bay station
10:12:32 INFO: [No Data] Vero Beach station
10:12:32 INFO: [No Data] Ponce De Leon South station
10:12:32 INFO: [No Data] Melbourne station
10:12:36 INFO: [Water  ] Aripeka
10:12:36 INFO: [No Data] Bing's Landing station
10:12:36 INFO: [No Data] Binney Dock station
10:12:37 INFO: [Water  ] Gordon River Inlet station
10:12:59 INFO: Finished processing [USF_ROMS]: http://crow.marine.usf.edu:8080/thredds/dodsC/WFS_SWAN_NF_model/USF_Ocean_Circulation_Group_West_Florida_Shelf_Daily_SWAN_Nowcast_Forecast_Wave_Model_Data_best.ncd
10:12:59 INFO: ****** Saving to file 2014-07-07/2014-07-07-USF_FVCOM.nc *******
10:12:59 INFO: [No Data] Duck, NC
10:12:59 INFO: [No Data] Oregon Inlet Marina, NC
10:12:59 INFO: [No Data] USCG Station Hatteras, NC
10:12:59 INFO: [No Data] Beaufort, NC
10:12:59 INFO: [No Data] Wilmington, NC
10:12:59 INFO: [No Data] Wrightsville Beach, NC
10:12:59 INFO: [No Data] Springmaid Pier, SC
10:12:59 INFO: [No Data] Oyster Landing (N Inlet Estuary), SC
10:12:59 INFO: [No Data] Charleston, SC
10:12:59 INFO: [No Data] Fernandina Beach, FL
10:12:59 INFO: [No Data] Mayport (Bar Pilots Dock), FL
10:12:59 INFO: [No Data] Dames Point, FL
10:12:59 INFO: [No Data] Southbank Riverwalk, St Johns River, FL
10:12:59 INFO: [No Data] I-295 Bridge, St Johns River, FL
10:12:59 INFO: [No Data] Red Bay Point, St Johns River, FL
10:12:59 INFO: [No Data] Racy Point, St Johns River, FL
10:12:59 INFO: [No Data] Trident Pier, FL
10:12:59 INFO: [No Data] Lake Worth Pier, FL
10:12:59 INFO: [No Data] Virginia Key, FL
10:13:12 INFO: [Water  ] Vaca Key, FL
10:13:21 INFO: [Water  ] Key West, FL
10:13:31 INFO: [Water  ] Naples, FL
10:13:41 INFO: [Water  ] Fort Myers, FL
10:13:51 INFO: [Water  ] Port Manatee, FL
10:14:01 INFO: [Water  ] St Petersburg, FL
10:14:10 INFO: [Water  ] Old Port Tampa, FL
10:14:14 INFO: [Water  ] Cedar Key, FL
10:14:24 INFO: [Water  ] Apalachicola, FL
10:14:24 INFO: [No Data] Panama City, FL
10:14:32 INFO: [Water  ] Panama City Beach, FL
10:14:32 INFO: [No Data] Pensacola, FL
10:14:32 INFO: [No Data] Tolomato River station
10:14:43 INFO: [Water  ] Fred Howard Park
10:14:47 INFO: [Water  ] usf_tas_ngwlms
10:14:57 INFO: [Water  ] Big Carlos Pass
10:15:09 INFO: [Water  ] Shell Point
10:15:09 INFO: [No Data] St Lucie Inlet station
10:15:19 INFO: [Water  ] Naples Bay station
10:15:19 INFO: [No Data] Vero Beach station
10:15:19 INFO: [No Data] Ponce De Leon South station
10:15:19 INFO: [No Data] Melbourne station
10:15:29 INFO: [Water  ] Aripeka
10:15:29 INFO: [No Data] Bing's Landing station
10:15:29 INFO: [No Data] Binney Dock station
10:15:40 INFO: [Water  ] Gordon River Inlet station
10:15:40 INFO: Finished processing [USF_FVCOM]: http://crow.marine.usf.edu:8080/thredds/dodsC/WFS_SWAN_NF_model/USF_Ocean_Circulation_Group_West_Florida_Shelf_Daily_SWAN_Nowcast_Forecast_Wave_Model_Data_best.ncd
10:15:40 INFO: ******* Saving to file 2014-07-07/2014-07-07-COAWST_4.nc *******
10:15:45 INFO: [Land   ] Duck, NC
10:15:54 INFO: [Water  ] Oregon Inlet Marina, NC
10:15:59 INFO: [Water  ] USCG Station Hatteras, NC
10:16:08 INFO: [Land   ] Beaufort, NC
10:16:13 INFO: [Land   ] Wilmington, NC
10:16:17 INFO: [Water  ] Wrightsville Beach, NC
10:16:26 INFO: [Water  ] Springmaid Pier, SC
10:16:31 INFO: [Land   ] Oyster Landing (N Inlet Estuary), SC
10:16:35 INFO: [Land   ] Charleston, SC
10:16:40 INFO: [Land   ] Fernandina Beach, FL
10:16:45 INFO: [Land   ] Mayport (Bar Pilots Dock), FL
10:16:50 INFO: [Land   ] Dames Point, FL
10:16:55 INFO: [Land   ] Southbank Riverwalk, St Johns River, FL
10:17:00 INFO: [Land   ] I-295 Bridge, St Johns River, FL
10:17:05 INFO: [Land   ] Red Bay Point, St Johns River, FL
10:17:10 INFO: [Land   ] Racy Point, St Johns River, FL
10:17:15 INFO: [Land   ] Trident Pier, FL
10:17:25 INFO: [Water  ] Lake Worth Pier, FL
10:17:30 INFO: [Land   ] Virginia Key, FL
10:17:34 INFO: [Land   ] Vaca Key, FL
10:17:44 INFO: [Water  ] Key West, FL
10:17:49 INFO: [Land   ] Naples, FL
10:17:54 INFO: [Land   ] Fort Myers, FL
10:17:59 INFO: [Land   ] Port Manatee, FL
10:18:04 INFO: [Land   ] St Petersburg, FL
10:18:14 INFO: [Water  ] Old Port Tampa, FL
10:18:23 INFO: [Water  ] Cedar Key, FL
10:18:28 INFO: [Water  ] Apalachicola, FL
10:18:33 INFO: [Water  ] Panama City, FL
10:18:42 INFO: [Land   ] Panama City Beach, FL
10:18:47 INFO: [Water  ] Pensacola, FL
10:18:52 INFO: [Land   ] Tolomato River station
10:18:57 INFO: [Land   ] Fred Howard Park
10:19:01 INFO: [Land   ] usf_tas_ngwlms
10:19:07 INFO: [Water  ] Big Carlos Pass
10:19:12 INFO: [Land   ] Shell Point
10:19:22 INFO: [Water  ] St Lucie Inlet station
10:19:27 INFO: [Land   ] Naples Bay station
10:19:37 INFO: [Land   ] Vero Beach station
10:19:42 INFO: [Water  ] Ponce De Leon South station
10:19:47 INFO: [Land   ] Melbourne station
10:19:51 INFO: [Land   ] Aripeka
10:19:56 INFO: [Land   ] Bing's Landing station
10:20:06 INFO: [Land   ] Binney Dock station
10:20:11 INFO: [Land   ] Gordon River Inlet station
10:21:15 INFO: Finished processing [COAWST_4]: http://crow.marine.usf.edu:8080/thredds/dodsC/WFS_SWAN_NF_model/USF_Ocean_Circulation_Group_West_Florida_Shelf_Daily_SWAN_Nowcast_Forecast_Wave_Model_Data_best.ncd
10:21:15 INFO: ******* Saving to file 2014-07-07/2014-07-07-ESPRESSO.nc *******
10:21:21 INFO: [Land   ] Duck, NC
10:21:24 INFO: [Water  ] Oregon Inlet Marina, NC
10:21:26 INFO: [Land   ] USCG Station Hatteras, NC
10:21:29 INFO: [Water  ] Beaufort, NC
10:21:29 INFO: [No Data] Wilmington, NC
10:21:29 INFO: [No Data] Wrightsville Beach, NC
10:21:29 INFO: [No Data] Springmaid Pier, SC
10:21:29 INFO: [No Data] Oyster Landing (N Inlet Estuary), SC
10:21:29 INFO: [No Data] Charleston, SC
10:21:29 INFO: [No Data] Fernandina Beach, FL
10:21:29 INFO: [No Data] Mayport (Bar Pilots Dock), FL
10:21:29 INFO: [No Data] Dames Point, FL
10:21:29 INFO: [No Data] Southbank Riverwalk, St Johns River, FL
10:21:29 INFO: [No Data] I-295 Bridge, St Johns River, FL
10:21:29 INFO: [No Data] Red Bay Point, St Johns River, FL
10:21:29 INFO: [No Data] Racy Point, St Johns River, FL
10:21:29 INFO: [No Data] Trident Pier, FL
10:21:29 INFO: [No Data] Lake Worth Pier, FL
10:21:29 INFO: [No Data] Virginia Key, FL
10:21:29 INFO: [No Data] Vaca Key, FL
10:21:29 INFO: [No Data] Key West, FL
10:21:29 INFO: [No Data] Naples, FL
10:21:29 INFO: [No Data] Fort Myers, FL
10:21:29 INFO: [No Data] Port Manatee, FL
10:21:29 INFO: [No Data] St Petersburg, FL
10:21:29 INFO: [No Data] Old Port Tampa, FL
10:21:29 INFO: [No Data] Cedar Key, FL
10:21:29 INFO: [No Data] Apalachicola, FL
10:21:29 INFO: [No Data] Panama City, FL
10:21:29 INFO: [No Data] Panama City Beach, FL
10:21:29 INFO: [No Data] Pensacola, FL
10:21:29 INFO: [No Data] Tolomato River station
10:21:29 INFO: [No Data] Fred Howard Park
10:21:29 INFO: [No Data] usf_tas_ngwlms
10:21:29 INFO: [No Data] Big Carlos Pass
10:21:29 INFO: [No Data] Shell Point
10:21:29 INFO: [No Data] St Lucie Inlet station
10:21:29 INFO: [No Data] Naples Bay station
10:21:29 INFO: [No Data] Vero Beach station
10:21:29 INFO: [No Data] Ponce De Leon South station
10:21:29 INFO: [No Data] Melbourne station
10:21:29 INFO: [No Data] Aripeka
10:21:29 INFO: [No Data] Bing's Landing station
10:21:29 INFO: [No Data] Binney Dock station
10:21:29 INFO: [No Data] Gordon River Inlet station
10:21:34 INFO: Finished processing [ESPRESSO]: http://crow.marine.usf.edu:8080/thredds/dodsC/WFS_SWAN_NF_model/USF_Ocean_Circulation_Group_West_Florida_Shelf_Daily_SWAN_Nowcast_Forecast_Wave_Model_Data_best.ncd
10:21:35 INFO: 29.12 minutes
10:21:35 INFO: EOF
